*Heading
** Job name: Cylinder-1000-coarse Model name: Calibration-3D-cylinder-coarse
** Generated by: Abaqus/CAE 6.12-1
*Preprint, echo=NO, model=NO, history=NO, contact=NO
**
** PARTS
**
*Part, name=Part-4-bottom
*Node
      1, -0.0126999998,           0., 0.0256500002
      2,           0., 0.0126999998, 0.0476424992
      3,           0.,           0., 0.0256500002
      4, 0.0126999998,           0., 0.0256500002
      5,           0., -0.0126999998, 0.00365750003
      6, -0.0124461455, 0.00252655311,  0.030025214
      7, -0.0118029695, 0.00468827318, 0.0337686501
      8, -0.010897873, 0.00652122451, 0.0369427577
      9, -0.00981493574, 0.00805959199, 0.0396067388
     10, -0.0086121792, 0.0093338294, 0.0418133251
     11, -0.00733289355, 0.0103691211, 0.0436061323
     12, -0.00601224555, 0.0111867292, 0.0450219773
     13, -0.00468271598, 0.0118051758, 0.0460929386
     14, -0.00338017149,  0.012241913, 0.0468492359
     15, -0.00214312854, 0.0125178676, 0.0473271012
     16, -0.00100793818,  0.012659939, 0.0475731269
     17,           0., 0.00127000001, 0.0278492495
     18,           0., 0.00254000002, 0.0300485007
     19,           0., 0.00380999991, 0.0322477482
     20,           0., 0.00508000003, 0.0344469994
** ... 2843 like lines cut
*Element, type=C3D8
 1, 1595, 1596, 1755, 1754, 1276, 1277, 1584, 1583
 2, 1596, 1282, 1591, 1755, 1277, 1242, 1278, 1584
 3, 1754, 1755, 1756, 1753, 1583, 1584, 1586, 1585
 4, 1755, 1591, 1592, 1756, 1584, 1278, 1279, 1586
 5, 1753, 1756, 1757, 1752, 1585, 1586, 1588, 1587
 6, 1756, 1592, 1593, 1757, 1586, 1279, 1280, 1588
 7, 1752, 1757, 1751, 1750, 1587, 1588, 1590, 1589
 8, 1757, 1593, 1594, 1751, 1588, 1280, 1281, 1590
 9, 1594, 1288, 1597, 1751, 1281, 1243, 1283, 1590
10, 1751, 1597, 1598, 1750, 1590, 1283, 1284, 1589
11, 1598, 1599, 1752, 1750, 1284, 1285, 1587, 1589
12, 1599, 1600, 1753, 1752, 1285, 1286, 1585, 1587
13, 1600, 1601, 1754, 1753, 1286, 1287, 1583, 1585
14, 1601, 1289, 1595, 1754, 1287, 1244, 1276, 1583
15, 1596, 1294, 1602, 1755, 1282, 1245, 1290, 1591
16, 1755, 1602, 1603, 1756, 1591, 1290, 1291, 1592
17, 1756, 1603, 1604, 1757, 1592, 1291, 1292, 1593
18, 1757, 1604, 1605, 1751, 1593, 1292, 1293, 1594
19, 1595, 1295, 1606, 1754, 1596, 1294, 1602, 1755
20, 1754, 1606, 1607, 1753, 1755, 1602, 1603, 1756
** ... 1612 like lines cut
*Element, type=COH3D8
1633, 2618, 2629, 2695, 2642, 2775, 2786, 2852, 2799
1634, 2629, 2630, 2696, 2695, 2786, 2787, 2853, 2852
1635, 2630, 2631, 2697, 2696, 2787, 2788, 2854, 2853
1636, 2631, 2632, 2698, 2697, 2788, 2789, 2855, 2854
1637, 2632, 2619, 2633, 2698, 2789, 2776, 2790, 2855
1638, 2642, 2695, 2699, 2641, 2799, 2852, 2856, 2798
1639, 2695, 2696, 2700, 2699, 2852, 2853, 2857, 2856
1640, 2696, 2697, 2701, 2700, 2853, 2854, 2858, 2857
1641, 2697, 2698, 2702, 2701, 2854, 2855, 2859, 2858
1642, 2698, 2633, 2634, 2702, 2855, 2790, 2791, 2859
1643, 2641, 2699, 2703, 2640, 2798, 2856, 2860, 2797
1644, 2699, 2700, 2704, 2703, 2856, 2857, 2861, 2860
1645, 2700, 2701, 2705, 2704, 2857, 2858, 2862, 2861
1646, 2701, 2702, 2706, 2705, 2858, 2859, 2863, 2862
1647, 2702, 2634, 2635, 2706, 2859, 2791, 2792, 2863
1648, 2640, 2703, 2639, 2621, 2797, 2860, 2796, 2778
1649, 2703, 2704, 2638, 2639, 2860, 2861, 2795, 2796
1650, 2704, 2705, 2637, 2638, 2861, 2862, 2794, 2795
1651, 2705, 2706, 2636, 2637, 2862, 2863, 2793, 2794
1652, 2706, 2635, 2620, 2636, 2863, 2792, 2777, 2793
** ... 116 like lines cut
*Nset, nset=Set-1
  509,  510,  511,  512,  513,  514,  515,  516,  517,  518,  519,  520,  521,  522,  523,  524
  525,  526,  544,  545,  546,  547,  548,  549,  550,  551,  552,  553,  554,  555,  556,  557
  558,  559,  560,  561,  562,  563,  564,  565,  566,  567,  568,  569,  570,  571,  572,  573
  574,  575,  576,  577,  578,  579,  580,  581,  582,  583,  584,  585,  586,  587,  588,  589
  590,  591,  592,  593,  594,  595,  596,  597,  598,  599,  600,  601,  602,  603,  604,  605
  606,  607,  608,  609,  610,  611,  612,  613,  614,  615,  616,  617,  618,  619,  620,  621
  622,  623,  624,  625,  626,  627,  628,  629,  630,  631,  632,  633,  634,  635,  636,  637
  638,  639,  640,  641,  642,  643,  644,  645,  646,  647,  648,  649,  650,  651,  652,  653
  654,  655,  656,  657,  658,  659,  660,  661,  662,  663,  664,  665,  666,  667,  668,  669
  670,  671,  672,  673,  674,  675,  676,  677,  678,  679,  680,  681,  682,  683,  684,  685
  686,  687,  688,  689,  690,  691,  692,  693,  694,  695,  696,  697,  698,  699,  700,  701
  702,  703,  704,  705,  706,  707,  708,  709,  710,  711,  712,  713,  714,  715,  716,  717
  718,  719,  720,  721,  722,  723,  724,  725,  726,  727,  728,  729,  730,  731,  732,  733
  734,  735,  736,  737,  738,  739,  740,  741,  742,  743,  744,  745,  746,  747,  748,  749
  750,  751,  752,  753,  754,  755,  756,  757,  758,  759,  760,  761,  762,  763,  764,  765
  766,  767,  768,  769,  770,  771,  772,  773,  774,  775,  776,  777,  778,  779,  780,  800
  801,  802,  803,  804,  805,  806,  807,  808,  809,  810,  811,  812,  813,  814,  815,  816
  817,  818,  819,  820,  821,  822,  823,  824,  825,  826,  827,  828,  829,  830,  831,  832
  833,  834,  835,  836,  837,  838,  839,  840,  841,  842,  843,  844,  845,  846,  847,  848
  849,  850,  851,  852,  853,  854,  855,  856,  857,  858,  859,  860,  861,  862,  863,  864
** ... 88 like lines cut
*Elset, elset=Set-1
   29,   30,   31,   32,   33,   34,   35,   36,   37,   38,   39,   40,   41,   42,   43,   44
   45,   46,   47,   48,   49,   50,   51,   52,   53,   54,   55,   56,   57,   58,   59,   60
   61,   62,   63,   64,   65,   66,   67,   68,   69,   70,   71,   72,   73,   74,   75,   76
   77,   78,   79,   80,   81,   82,   83,   84,   85,   86,   87,   88,   89,   90,   91,   92
   93,   94,   95,   96,   97,   98,   99,  100,  101,  102,  103,  104,  105,  106,  107,  108
  109,  110,  111,  112,  113,  114,  115,  116,  117,  118,  119,  120,  121,  122,  123,  124
  125,  126,  127,  128,  129,  130,  131,  132,  133,  134,  135,  136,  137,  138,  139,  140
  141,  142,  143,  144,  145,  146,  147,  148,  149,  150,  151,  152,  153,  154,  155,  156
  157,  158,  159,  160,  161,  162,  163,  164,  165,  166,  167,  168,  169,  170,  171,  172
  173,  174,  175,  176,  177,  178,  179,  180,  181,  182,  183,  184,  185,  186,  187,  188
  189,  190,  191,  192,  193,  194,  195,  196,  197,  198,  199,  200,  201,  202,  203,  204
  205,  206,  207,  208,  209,  210,  211,  212,  213,  214,  215,  216,  217,  218,  219,  220
  221,  222,  223,  224,  225,  226,  227,  228,  257,  258,  259,  260,  261,  262,  263,  264
  265,  266,  267,  268,  269,  270,  271,  272,  273,  274,  275,  276,  277,  278,  279,  280
  281,  282,  283,  284,  285,  286,  287,  288,  289,  290,  291,  292,  293,  294,  295,  296
  297,  298,  299,  300,  301,  302,  303,  304,  305,  306,  307,  308,  309,  310,  311,  312
  313,  314,  315,  316,  317,  318,  319,  320,  321,  322,  323,  324,  325,  326,  327,  328
  329,  330,  331,  332,  333,  334,  335,  336,  337,  338,  339,  340,  341,  342,  343,  344
  345,  346,  347,  348,  349,  350,  351,  352,  353,  354,  355,  356,  357,  358,  359,  360
  361,  362,  363,  364,  365,  366,  367,  368,  369,  370,  371,  372,  373,  374,  375,  376
** ... 65 like lines cut
*Nset, nset=Set-2
  519,  520,  521,  522,  523,  524,  525,  526,  527,  528,  529,  530,  531,  532,  533,  534
  535,  536,  537,  538,  539,  540,  541,  542,  543,  556,  557,  558,  559,  560,  561,  562
  563,  564,  565,  566,  567,  679,  680,  681,  682,  683,  684,  685,  686,  687,  688,  689
  690,  781,  782,  783,  784,  785,  786,  787,  788,  789,  790,  791,  792,  793,  794,  795
  796,  797,  798,  799,  800,  801,  802,  803,  804,  805,  806,  807,  915,  916,  917,  918
  919,  920,  921,  922,  923,  924,  925,  926,  927,  928,  929,  930,  931,  932,  933,  934
  935,  936,  937,  938,  939,  940,  941,  942,  943,  944,  945,  946,  947,  948,  949,  950
  951,  952,  953,  954,  955,  956,  957,  958,  959,  960,  961,  962,  963,  964,  965,  966
  967,  968,  969,  970,  971,  972,  973,  974,  975,  976,  977,  978,  979,  980,  981,  982
  983,  984,  985,  986,  987,  988,  989,  990,  991,  992, 1209, 1210, 1211, 1212, 1213, 1214
 1215, 1216, 1217, 1218, 1219, 1220, 1221, 1222, 1223, 1224, 1225, 1226, 1227, 1228, 1229, 1230
 1231, 1232, 1233, 1234, 1235, 1236, 1237, 1238, 1239, 1240, 1241, 1242, 1243, 1244, 1245, 1246
 1247, 1248, 1249, 1254, 1255, 1258, 1261, 1262, 1263, 1264, 1265, 1266, 1269, 1270, 1271, 1272
 1273, 1276, 1277, 1278, 1279, 1280, 1281, 1282, 1283, 1284, 1285, 1286, 1287, 1288, 1289, 1290
 1291, 1292, 1293, 1294, 1295, 1296, 1297, 1298, 1299, 1300, 1301, 1302, 1303, 1304, 1305, 1306
 1307, 1308, 1309, 1310, 1361, 1362, 1363, 1364, 1365, 1366, 1367, 1368, 1369, 1370, 1371, 1372
 1373, 1374, 1375, 1376, 1377, 1378, 1379, 1391, 1392, 1393, 1394, 1395, 1396, 1397, 1426, 1427
 1428, 1429, 1430, 1431, 1432, 1433, 1434, 1435, 1454, 1455, 1456, 1457, 1458, 1459, 1460, 1461
 1462, 1463, 1464, 1465, 1466, 1467, 1468, 1469, 1470, 1471, 1472, 1473, 1474, 1504, 1505, 1506
 1507, 1508, 1509, 1510, 1511, 1512, 1513, 1514, 1515, 1516, 1517, 1518, 1519, 1520, 1521, 1522
** ... 10 like lines cut
*Elset, elset=Set-2
    1,    2,    3,    4,    5,    6,    7,    8,    9,   10,   11,   12,   13,   14,   15,   16
   17,   18,   19,   20,   21,   22,   23,   24,   25,   26,   27,   28,  229,  230,  231,  232
  233,  234,  235,  236,  237,  238,  239,  240,  241,  242,  243,  244,  245,  246,  247,  248
  249,  250,  251,  252,  253,  254,  255,  256,  657,  658,  659,  660,  661,  662,  663,  664
  665,  666,  667,  668,  669,  670,  671,  672,  673,  674,  675,  676,  677,  678,  679,  680
  681,  682,  683,  684,  825,  826,  827,  828,  829,  830,  831,  832,  833,  834,  835,  836
  837,  838,  839,  840,  841,  842,  843,  844,  845,  846,  847,  848,  849,  850,  851,  852
  853,  854,  855,  856,  857,  858,  859,  860,  861,  862,  863,  864,  865,  866,  867,  868
  869,  870,  871,  872,  873,  874,  875,  876,  877,  878,  879,  880,  881,  882,  883,  884
  885,  886,  887,  888,  889,  890,  891,  892,  893,  894,  895,  896,  897,  898,  899,  900
  901,  902,  903,  904,  905,  906,  907,  908,  909,  910,  911,  912,  913,  914,  915,  916
  917,  918,  919,  920,  921,  922,  923,  924,  925,  926,  927,  928,  929,  930,  931,  932
 1553, 1554, 1555, 1556, 1557, 1558, 1559, 1560, 1561, 1562, 1563, 1564, 1565, 1566, 1567, 1568
 1569, 1570, 1571, 1572, 1573, 1574, 1575, 1576, 1577, 1578, 1579, 1580, 1581, 1582, 1583, 1584
 1585, 1586, 1587, 1588, 1589, 1590, 1591, 1592, 1593, 1594, 1595, 1596, 1597, 1598, 1599, 1600
 1601, 1602, 1603, 1604, 1605, 1606, 1607, 1608, 1609, 1610, 1611, 1612, 1613, 1614, 1615, 1616
 1617, 1618, 1619, 1620, 1621, 1622, 1623, 1624, 1625, 1626, 1627, 1628, 1629, 1630, 1631, 1632
*Elset, elset=OffsetElements-1-Layer-1, generate
 1633,  1768,     1
*Elset, elset=_OffsetElements-1-BottomSurf_S1, internal, generate
 1633,  1768,     1
*Surface, type=ELEMENT, name=OffsetElements-1-BottomSurf
_OffsetElements-1-BottomSurf_S1, S1
*Elset, elset=_OffsetElements-1-TopSurf_S2, internal, generate
 1633,  1768,     1
*Surface, type=ELEMENT, name=OffsetElements-1-TopSurf
_OffsetElements-1-TopSurf_S2, S2
** Section: Steel
*Solid Section, elset=Set-2, material=Steel
,
** Section: rock
*Solid Section, elset=Set-1, material=rock
,
** Section: cohe
*Cohesive Section, elset=OffsetElements-1-Layer-1, material=cohe, response=TRACTION SEPARATION
, 
*End Part
**  
*Part, name=Part-4-top
*Node
      1, -0.0126999998,           0., 0.0256500002
      2,           0., 0.0126999998, 0.0476424992
      3,           0.,           0., 0.0256500002
      4, 0.0126999998,           0., 0.0256500002
      5,           0., -0.0126999998, 0.00365750003
      6, -0.0124461455, 0.00252655311,  0.030025214
      7, -0.0118029695, 0.00468827318, 0.0337686501
      8, -0.010897873, 0.00652122451, 0.0369427577
      9, -0.00981493574, 0.00805959199, 0.0396067388
     10, -0.0086121792, 0.0093338294, 0.0418133251
     11, -0.00733289355, 0.0103691211, 0.0436061323
     12, -0.00601224555, 0.0111867292, 0.0450219773
     13, -0.00468271598, 0.0118051758, 0.0460929386
     14, -0.00338017149,  0.012241913, 0.0468492359
     15, -0.00214312854, 0.0125178676, 0.0473271012
     16, -0.00100793818,  0.012659939, 0.0475731269
     17,           0., 0.00127000001, 0.0278492495
     18,           0., 0.00254000002, 0.0300485007
     19,           0., 0.00380999991, 0.0322477482
     20,           0., 0.00508000003, 0.0344469994
** ... 2529 like lines cut
*Element, type=C3D8
 1, 1595, 1596, 1755, 1754, 1276, 1277, 1584, 1583
 2, 1596, 1282, 1591, 1755, 1277, 1242, 1278, 1584
 3, 1754, 1755, 1756, 1753, 1583, 1584, 1586, 1585
 4, 1755, 1591, 1592, 1756, 1584, 1278, 1279, 1586
 5, 1753, 1756, 1757, 1752, 1585, 1586, 1588, 1587
 6, 1756, 1592, 1593, 1757, 1586, 1279, 1280, 1588
 7, 1752, 1757, 1751, 1750, 1587, 1588, 1590, 1589
 8, 1757, 1593, 1594, 1751, 1588, 1280, 1281, 1590
 9, 1594, 1288, 1597, 1751, 1281, 1243, 1283, 1590
10, 1751, 1597, 1598, 1750, 1590, 1283, 1284, 1589
11, 1598, 1599, 1752, 1750, 1284, 1285, 1587, 1589
12, 1599, 1600, 1753, 1752, 1285, 1286, 1585, 1587
13, 1600, 1601, 1754, 1753, 1286, 1287, 1583, 1585
14, 1601, 1289, 1595, 1754, 1287, 1244, 1276, 1583
15, 1596, 1294, 1602, 1755, 1282, 1245, 1290, 1591
16, 1755, 1602, 1603, 1756, 1591, 1290, 1291, 1592
17, 1756, 1603, 1604, 1757, 1592, 1291, 1292, 1593
18, 1757, 1604, 1605, 1751, 1593, 1292, 1293, 1594
19, 1595, 1295, 1606, 1754, 1596, 1294, 1602, 1755
20, 1754, 1606, 1607, 1753, 1755, 1602, 1603, 1756
** ... 1612 like lines cut
*Nset, nset=Set-1
  509,  510,  511,  512,  513,  514,  515,  516,  517,  518,  519,  520,  521,  522,  523,  524
  525,  526,  544,  545,  546,  547,  548,  549,  550,  551,  552,  553,  554,  555,  556,  557
  558,  559,  560,  561,  562,  563,  564,  565,  566,  567,  568,  569,  570,  571,  572,  573
  574,  575,  576,  577,  578,  579,  580,  581,  582,  583,  584,  585,  586,  587,  588,  589
  590,  591,  592,  593,  594,  595,  596,  597,  598,  599,  600,  601,  602,  603,  604,  605
  606,  607,  608,  609,  610,  611,  612,  613,  614,  615,  616,  617,  618,  619,  620,  621
  622,  623,  624,  625,  626,  627,  628,  629,  630,  631,  632,  633,  634,  635,  636,  637
  638,  639,  640,  641,  642,  643,  644,  645,  646,  647,  648,  649,  650,  651,  652,  653
  654,  655,  656,  657,  658,  659,  660,  661,  662,  663,  664,  665,  666,  667,  668,  669
  670,  671,  672,  673,  674,  675,  676,  677,  678,  679,  680,  681,  682,  683,  684,  685
  686,  687,  688,  689,  690,  691,  692,  693,  694,  695,  696,  697,  698,  699,  700,  701
  702,  703,  704,  705,  706,  707,  708,  709,  710,  711,  712,  713,  714,  715,  716,  717
  718,  719,  720,  721,  722,  723,  724,  725,  726,  727,  728,  729,  730,  731,  732,  733
  734,  735,  736,  737,  738,  739,  740,  741,  742,  743,  744,  745,  746,  747,  748,  749
  750,  751,  752,  753,  754,  755,  756,  757,  758,  759,  760,  761,  762,  763,  764,  765
  766,  767,  768,  769,  770,  771,  772,  773,  774,  775,  776,  777,  778,  779,  780,  800
  801,  802,  803,  804,  805,  806,  807,  808,  809,  810,  811,  812,  813,  814,  815,  816
  817,  818,  819,  820,  821,  822,  823,  824,  825,  826,  827,  828,  829,  830,  831,  832
  833,  834,  835,  836,  837,  838,  839,  840,  841,  842,  843,  844,  845,  846,  847,  848
  849,  850,  851,  852,  853,  854,  855,  856,  857,  858,  859,  860,  861,  862,  863,  864
** ... 88 like lines cut
*Elset, elset=Set-1
   29,   30,   31,   32,   33,   34,   35,   36,   37,   38,   39,   40,   41,   42,   43,   44
   45,   46,   47,   48,   49,   50,   51,   52,   53,   54,   55,   56,   57,   58,   59,   60
   61,   62,   63,   64,   65,   66,   67,   68,   69,   70,   71,   72,   73,   74,   75,   76
   77,   78,   79,   80,   81,   82,   83,   84,   85,   86,   87,   88,   89,   90,   91,   92
   93,   94,   95,   96,   97,   98,   99,  100,  101,  102,  103,  104,  105,  106,  107,  108
  109,  110,  111,  112,  113,  114,  115,  116,  117,  118,  119,  120,  121,  122,  123,  124
  125,  126,  127,  128,  129,  130,  131,  132,  133,  134,  135,  136,  137,  138,  139,  140
  141,  142,  143,  144,  145,  146,  147,  148,  149,  150,  151,  152,  153,  154,  155,  156
  157,  158,  159,  160,  161,  162,  163,  164,  165,  166,  167,  168,  169,  170,  171,  172
  173,  174,  175,  176,  177,  178,  179,  180,  181,  182,  183,  184,  185,  186,  187,  188
  189,  190,  191,  192,  193,  194,  195,  196,  197,  198,  199,  200,  201,  202,  203,  204
  205,  206,  207,  208,  209,  210,  211,  212,  213,  214,  215,  216,  217,  218,  219,  220
  221,  222,  223,  224,  225,  226,  227,  228,  257,  258,  259,  260,  261,  262,  263,  264
  265,  266,  267,  268,  269,  270,  271,  272,  273,  274,  275,  276,  277,  278,  279,  280
  281,  282,  283,  284,  285,  286,  287,  288,  289,  290,  291,  292,  293,  294,  295,  296
  297,  298,  299,  300,  301,  302,  303,  304,  305,  306,  307,  308,  309,  310,  311,  312
  313,  314,  315,  316,  317,  318,  319,  320,  321,  322,  323,  324,  325,  326,  327,  328
  329,  330,  331,  332,  333,  334,  335,  336,  337,  338,  339,  340,  341,  342,  343,  344
  345,  346,  347,  348,  349,  350,  351,  352,  353,  354,  355,  356,  357,  358,  359,  360
  361,  362,  363,  364,  365,  366,  367,  368,  369,  370,  371,  372,  373,  374,  375,  376
** ... 65 like lines cut
*Nset, nset=Set-2
  519,  520,  521,  522,  523,  524,  525,  526,  527,  528,  529,  530,  531,  532,  533,  534
  535,  536,  537,  538,  539,  540,  541,  542,  543,  556,  557,  558,  559,  560,  561,  562
  563,  564,  565,  566,  567,  679,  680,  681,  682,  683,  684,  685,  686,  687,  688,  689
  690,  781,  782,  783,  784,  785,  786,  787,  788,  789,  790,  791,  792,  793,  794,  795
  796,  797,  798,  799,  800,  801,  802,  803,  804,  805,  806,  807,  915,  916,  917,  918
  919,  920,  921,  922,  923,  924,  925,  926,  927,  928,  929,  930,  931,  932,  933,  934
  935,  936,  937,  938,  939,  940,  941,  942,  943,  944,  945,  946,  947,  948,  949,  950
  951,  952,  953,  954,  955,  956,  957,  958,  959,  960,  961,  962,  963,  964,  965,  966
  967,  968,  969,  970,  971,  972,  973,  974,  975,  976,  977,  978,  979,  980,  981,  982
  983,  984,  985,  986,  987,  988,  989,  990,  991,  992, 1209, 1210, 1211, 1212, 1213, 1214
 1215, 1216, 1217, 1218, 1219, 1220, 1221, 1222, 1223, 1224, 1225, 1226, 1227, 1228, 1229, 1230
 1231, 1232, 1233, 1234, 1235, 1236, 1237, 1238, 1239, 1240, 1241, 1242, 1243, 1244, 1245, 1246
 1247, 1248, 1249, 1254, 1255, 1258, 1261, 1262, 1263, 1264, 1265, 1266, 1269, 1270, 1271, 1272
 1273, 1276, 1277, 1278, 1279, 1280, 1281, 1282, 1283, 1284, 1285, 1286, 1287, 1288, 1289, 1290
 1291, 1292, 1293, 1294, 1295, 1296, 1297, 1298, 1299, 1300, 1301, 1302, 1303, 1304, 1305, 1306
 1307, 1308, 1309, 1310, 1361, 1362, 1363, 1364, 1365, 1366, 1367, 1368, 1369, 1370, 1371, 1372
 1373, 1374, 1375, 1376, 1377, 1378, 1379, 1391, 1392, 1393, 1394, 1395, 1396, 1397, 1426, 1427
 1428, 1429, 1430, 1431, 1432, 1433, 1434, 1435, 1454, 1455, 1456, 1457, 1458, 1459, 1460, 1461
 1462, 1463, 1464, 1465, 1466, 1467, 1468, 1469, 1470, 1471, 1472, 1473, 1474, 1504, 1505, 1506
 1507, 1508, 1509, 1510, 1511, 1512, 1513, 1514, 1515, 1516, 1517, 1518, 1519, 1520, 1521, 1522
** ... 10 like lines cut
*Elset, elset=Set-2
    1,    2,    3,    4,    5,    6,    7,    8,    9,   10,   11,   12,   13,   14,   15,   16
   17,   18,   19,   20,   21,   22,   23,   24,   25,   26,   27,   28,  229,  230,  231,  232
  233,  234,  235,  236,  237,  238,  239,  240,  241,  242,  243,  244,  245,  246,  247,  248
  249,  250,  251,  252,  253,  254,  255,  256,  657,  658,  659,  660,  661,  662,  663,  664
  665,  666,  667,  668,  669,  670,  671,  672,  673,  674,  675,  676,  677,  678,  679,  680
  681,  682,  683,  684,  825,  826,  827,  828,  829,  830,  831,  832,  833,  834,  835,  836
  837,  838,  839,  840,  841,  842,  843,  844,  845,  846,  847,  848,  849,  850,  851,  852
  853,  854,  855,  856,  857,  858,  859,  860,  861,  862,  863,  864,  865,  866,  867,  868
  869,  870,  871,  872,  873,  874,  875,  876,  877,  878,  879,  880,  881,  882,  883,  884
  885,  886,  887,  888,  889,  890,  891,  892,  893,  894,  895,  896,  897,  898,  899,  900
  901,  902,  903,  904,  905,  906,  907,  908,  909,  910,  911,  912,  913,  914,  915,  916
  917,  918,  919,  920,  921,  922,  923,  924,  925,  926,  927,  928,  929,  930,  931,  932
 1553, 1554, 1555, 1556, 1557, 1558, 1559, 1560, 1561, 1562, 1563, 1564, 1565, 1566, 1567, 1568
 1569, 1570, 1571, 1572, 1573, 1574, 1575, 1576, 1577, 1578, 1579, 1580, 1581, 1582, 1583, 1584
 1585, 1586, 1587, 1588, 1589, 1590, 1591, 1592, 1593, 1594, 1595, 1596, 1597, 1598, 1599, 1600
 1601, 1602, 1603, 1604, 1605, 1606, 1607, 1608, 1609, 1610, 1611, 1612, 1613, 1614, 1615, 1616
 1617, 1618, 1619, 1620, 1621, 1622, 1623, 1624, 1625, 1626, 1627, 1628, 1629, 1630, 1631, 1632
** Section: Steel
*Solid Section, elset=Set-2, material=Steel
,
** Section: rock
*Solid Section, elset=Set-1, material=rock
,
*End Part
**  
**
** ASSEMBLY
**
*Assembly, name=Assembly
**  
*Instance, name=Part-4-top-1, part=Part-4-top
          0.,  4.87594251578977e-18,       0.0513
          0.,  4.87594251578977e-18,       0.0513,           1.,  4.87594251578977e-18,       0.0513,         180.
*End Instance
**  
*Instance, name=Part-4-bottom-1, part=Part-4-bottom
*End Instance
**  
*Nset, nset=Set-3, instance=Part-4-top-1
  536,  537,  538,  539,  540,  541,  542,  543,  781,  782,  783,  784,  785,  786,  787,  788
  935,  936,  937,  938,  939,  940,  941,  942,  943,  944,  945,  946,  966,  967,  968,  969
  970,  971,  972,  973,  974,  975,  976,  977,  978,  979,  980,  981,  982,  983,  984,  985
 1209, 1210, 1211, 1212, 1213, 1214, 1215, 1216, 1217, 1218, 1219, 1220, 1227, 1228, 1229, 1230
 1231, 1232, 1233, 1234, 1235, 1236, 1237, 1238, 1242, 1243, 1244, 1255, 1263, 1264, 1265, 1270
 1271, 1272, 1273, 1276, 1277, 1278, 1279, 1280, 1281, 1283, 1284, 1285, 1286, 1287, 1371, 1372
 1373, 1374, 1375, 1376, 1377, 1378, 1379, 1454, 1455, 1456, 1457, 1458, 1459, 1460, 1461, 1462
 1464, 1465, 1516, 1517, 1518, 1519, 1520, 1521, 1522, 1523, 1524, 1525, 1526, 1527, 1528, 1529
 1533, 1534, 1535, 1536, 1537, 1538, 1539, 1540, 1541, 1542, 1543, 1544, 1574, 1575, 1576, 1577
 1578, 1579, 1580, 1581, 1582, 1583, 1584, 1585, 1586, 1587, 1588, 1589, 1590
*Elset, elset=Set-3, instance=Part-4-top-1
    1,    2,    3,    4,    5,    6,    7,    8,    9,   10,   11,   12,   13,   14,  243,  244
  245,  246,  247,  248,  249,  250,  251,  252,  253,  254,  255,  256,  657,  658,  659,  660
  661,  662,  663,  664,  665,  666,  667,  668,  669,  670,  845,  846,  847,  848,  849,  850
  851,  852,  853,  854,  855,  856,  857,  858,  859,  860,  861,  862,  863,  864,  879,  880
  881,  882,  883,  884,  885,  886,  887,  888,  889,  890,  891,  892,  893,  894,  895,  896
  897,  898,  899,  900,  901,  902,  903,  904,  905,  906,  907,  908,  909,  910,  911,  912
 1553, 1554, 1555, 1556, 1557, 1558, 1559, 1560, 1561, 1562, 1563, 1564, 1565, 1566, 1567, 1568
 1569, 1570, 1571, 1572, 1613, 1614, 1615, 1616, 1617, 1618, 1619, 1620, 1621, 1622, 1623, 1624
 1625, 1626, 1627, 1628, 1629, 1630, 1631, 1632
*Nset, nset=Set-1, instance=Part-4-bottom-1
  536,  537,  538,  539,  540,  541,  542,  543,  781,  782,  783,  784,  785,  786,  787,  788
  935,  936,  937,  938,  939,  940,  941,  942,  943,  944,  945,  946,  966,  967,  968,  969
  970,  971,  972,  973,  974,  975,  976,  977,  978,  979,  980,  981,  982,  983,  984,  985
 1209, 1210, 1211, 1212, 1213, 1214, 1215, 1216, 1217, 1218, 1219, 1220, 1227, 1228, 1229, 1230
 1231, 1232, 1233, 1234, 1235, 1236, 1237, 1238, 1242, 1243, 1244, 1255, 1263, 1264, 1265, 1270
 1271, 1272, 1273, 1276, 1277, 1278, 1279, 1280, 1281, 1283, 1284, 1285, 1286, 1287, 1371, 1372
 1373, 1374, 1375, 1376, 1377, 1378, 1379, 1454, 1455, 1456, 1457, 1458, 1459, 1460, 1461, 1462
 1464, 1465, 1516, 1517, 1518, 1519, 1520, 1521, 1522, 1523, 1524, 1525, 1526, 1527, 1528, 1529
 1533, 1534, 1535, 1536, 1537, 1538, 1539, 1540, 1541, 1542, 1543, 1544, 1574, 1575, 1576, 1577
 1578, 1579, 1580, 1581, 1582, 1583, 1584, 1585, 1586, 1587, 1588, 1589, 1590
*Elset, elset=Set-1, instance=Part-4-bottom-1
    1,    2,    3,    4,    5,    6,    7,    8,    9,   10,   11,   12,   13,   14,  243,  244
  245,  246,  247,  248,  249,  250,  251,  252,  253,  254,  255,  256,  657,  658,  659,  660
  661,  662,  663,  664,  665,  666,  667,  668,  669,  670,  845,  846,  847,  848,  849,  850
  851,  852,  853,  854,  855,  856,  857,  858,  859,  860,  861,  862,  863,  864,  879,  880
  881,  882,  883,  884,  885,  886,  887,  888,  889,  890,  891,  892,  893,  894,  895,  896
  897,  898,  899,  900,  901,  902,  903,  904,  905,  906,  907,  908,  909,  910,  911,  912
 1553, 1554, 1555, 1556, 1557, 1558, 1559, 1560, 1561, 1562, 1563, 1564, 1565, 1566, 1567, 1568
 1569, 1570, 1571, 1572, 1613, 1614, 1615, 1616, 1617, 1618, 1619, 1620, 1621, 1622, 1623, 1624
 1625, 1626, 1627, 1628, 1629, 1630, 1631, 1632
*Nset, nset=Set-2, instance=Part-4-bottom-1
 1272,
*Elset, elset=_s_Surf-1_S2, internal, instance=Part-4-top-1
  209,  210,  211,  212,  213,  214,  215,  216,  217,  218,  219,  220,  221,  222,  223,  224
  225,  226,  227,  228,  257,  258,  259,  260,  261,  262,  263,  264,  265,  266,  267,  268
  269,  270,  271,  272,  273,  274,  275,  276,  457,  458,  459,  460,  461,  462,  463,  464
  465,  466,  467,  468,  469,  470,  471,  472,  473,  474,  475,  476,  685,  686,  695,  696
  697,  698,  699,  700,  701,  702,  735,  736,  737,  738, 1053, 1054, 1055, 1056, 1073, 1074
 1075, 1076, 1077, 1078, 1079, 1080, 1081, 1082, 1083, 1084, 1085, 1086, 1087, 1088, 1089, 1090
 1091, 1092, 1273, 1274, 1275, 1276, 1277, 1278, 1279, 1280, 1313, 1314, 1323, 1324, 1325, 1326
 1413, 1414, 1415, 1416, 1417, 1418, 1419, 1420, 1453, 1454, 1463, 1464, 1465, 1466
*Elset, elset=_s_Surf-1_S4, internal, instance=Part-4-top-1, generate
 1007,  1042,     5
*Elset, elset=_s_Surf-1_S3, internal, instance=Part-4-top-1
 1043, 1048
*Surface, type=ELEMENT, name=s_Surf-1
_s_Surf-1_S2, S2
_s_Surf-1_S4, S4
_s_Surf-1_S3, S3
*Elset, elset=_m_Surf-1_S2, internal, instance=Part-4-bottom-1
  209,  210,  211,  212,  213,  214,  215,  216,  217,  218,  219,  220,  221,  222,  223,  224
  225,  226,  227,  228,  257,  258,  259,  260,  261,  262,  263,  264,  265,  266,  267,  268
  269,  270,  271,  272,  273,  274,  275,  276,  457,  458,  459,  460,  461,  462,  463,  464
  465,  466,  467,  468,  469,  470,  471,  472,  473,  474,  475,  476,  685,  686,  695,  696
  697,  698,  699,  700,  701,  702,  735,  736,  737,  738, 1053, 1054, 1055, 1056, 1073, 1074
 1075, 1076, 1077, 1078, 1079, 1080, 1081, 1082, 1083, 1084, 1085, 1086, 1087, 1088, 1089, 1090
 1091, 1092, 1273, 1274, 1275, 1276, 1277, 1278, 1279, 1280, 1313, 1314, 1323, 1324, 1325, 1326
 1413, 1414, 1415, 1416, 1417, 1418, 1419, 1420, 1453, 1454, 1463, 1464, 1465, 1466
*Elset, elset=_m_Surf-1_S4, internal, instance=Part-4-bottom-1, generate
 1007,  1042,     5
*Elset, elset=_m_Surf-1_S3, internal, instance=Part-4-bottom-1
 1043, 1048
*Surface, type=ELEMENT, name=m_Surf-1
_m_Surf-1_S2, S2
_m_Surf-1_S4, S4
_m_Surf-1_S3, S3
*Elset, elset=_Surf-1_S4, internal, instance=Part-4-top-1
    9,   10,   23,   24,   25,   26,   27,   28,   33,   38,   43,   48,   53,   58,   63,   68
   73,   78,   83,   88,   93,   98,  103,  108,  113,  118,  123,  128,  133,  138,  143,  148
  153,  158,  163,  168,  173,  178,  183,  188,  193,  198,  203,  208,  213,  218,  223,  228
  237,  238,  243,  244,  245,  246,  247,  248,  249,  250,  251,  252,  667,  668,  669,  670
  735,  736,  737,  738,  739,  740,  741,  742,  743,  744,  745,  746,  747,  748,  749,  750
  751,  752,  753,  754,  829,  834,  839,  844,  849,  854,  859,  864,  875,  876,  877,  878
  879,  880,  889,  890,  891,  892,  897,  902,  907,  912,  917,  922,  927,  932,  933,  934
  935,  936,  937,  938,  939,  940,  941,  942, 1043, 1044, 1045, 1046, 1047, 1048, 1049, 1050
 1051, 1052, 1053, 1054, 1055, 1056, 1057, 1058, 1059, 1060, 1061, 1062, 1063, 1064, 1065, 1066
 1067, 1068, 1069, 1070, 1071, 1072, 1077, 1082, 1087, 1092, 1097, 1102, 1107, 1112, 1117, 1122
 1127, 1132, 1137, 1142, 1147, 1152, 1157, 1162, 1167, 1172, 1177, 1182, 1187, 1192, 1197, 1202
 1207, 1212, 1217, 1222, 1227, 1232, 1237, 1242, 1247, 1252, 1257, 1262, 1267, 1272, 1313, 1314
 1315, 1316, 1317, 1318, 1319, 1320, 1321, 1322, 1343, 1344, 1345, 1346, 1347, 1348, 1349, 1350
 1351, 1352, 1453, 1454, 1455, 1456, 1457, 1458, 1459, 1460, 1461, 1462, 1483, 1484, 1485, 1486
 1487, 1488, 1489, 1490, 1491, 1492
*Elset, elset=_Surf-1_S4, internal, instance=Part-4-bottom-1
    9,   10,   23,   24,   25,   26,   27,   28,   33,   38,   43,   48,   53,   58,   63,   68
   73,   78,   83,   88,   93,   98,  103,  108,  113,  118,  123,  128,  133,  138,  143,  148
  153,  158,  163,  168,  173,  178,  183,  188,  193,  198,  203,  208,  213,  218,  223,  228
  237,  238,  243,  244,  667,  668,  669,  670,  735,  736,  737,  738,  739,  740,  741,  742
  743,  744,  745,  746,  747,  748,  749,  750,  751,  752,  753,  754,  829,  834,  839,  844
  849,  854,  859,  864,  875,  876,  877,  878,  897,  902,  907,  912,  917,  922,  927,  932
  933,  934,  935,  936,  937,  938,  939,  940,  941,  942, 1043, 1044, 1045, 1046, 1047, 1048
 1049, 1050, 1051, 1052, 1053, 1054, 1055, 1056, 1057, 1058, 1059, 1060, 1061, 1062, 1063, 1064
 1065, 1066, 1067, 1068, 1069, 1070, 1071, 1072, 1077, 1082, 1087, 1092, 1097, 1102, 1107, 1112
 1117, 1122, 1127, 1132, 1137, 1142, 1147, 1152, 1157, 1162, 1167, 1172, 1177, 1182, 1187, 1192
 1197, 1202, 1207, 1212, 1217, 1222, 1227, 1232, 1237, 1242, 1247, 1252, 1257, 1262, 1267, 1272
 1313, 1314, 1315, 1316, 1317, 1318, 1319, 1320, 1321, 1322, 1343, 1344, 1345, 1346, 1347, 1348
 1349, 1350, 1351, 1352, 1453, 1454, 1455, 1456, 1457, 1458, 1459, 1460, 1461, 1462, 1483, 1484
 1485, 1486, 1487, 1488, 1489, 1490, 1491, 1492
*Elset, elset=_Surf-1_S2, internal, instance=Part-4-top-1
    1,    2,    3,    4,    5,    6,    7,    8,    9,   10,   11,   12,   13,   14,  253,  254
  255,  256,  657,  658,  659,  660,  661,  662,  663,  664,  665,  666,  667,  668,  669,  670
  805,  806,  807,  808,  809,  810,  811,  812,  813,  814,  815,  816,  817,  818,  819,  820
  821,  822,  823,  824,  889,  890,  891,  892,  893,  894,  895,  896,  897,  898,  899,  900
  901,  902,  903,  904,  905,  906,  907,  908,  909,  910,  911,  912, 1393, 1394, 1395, 1396
 1397, 1398, 1399, 1400, 1401, 1402, 1403, 1404, 1405, 1406, 1407, 1408, 1409, 1410, 1411, 1412
 1553, 1554, 1555, 1556, 1557, 1558, 1559, 1560, 1561, 1562, 1563, 1564, 1565, 1566, 1567, 1568
 1569, 1570, 1571, 1572
*Elset, elset=_Surf-1_S2, internal, instance=Part-4-bottom-1
  253,  254,  255,  256,  805,  806,  807,  808,  809,  810,  811,  812,  813,  814,  815,  816
  817,  818,  819,  820,  821,  822,  823,  824,  889,  890,  891,  892, 1393, 1394, 1395, 1396
 1397, 1398, 1399, 1400, 1401, 1402, 1403, 1404, 1405, 1406, 1407, 1408, 1409, 1410, 1411, 1412
*Elset, elset=_Surf-1_S3, internal, instance=Part-4-top-1
   11,   12,   13,   14,  239,  240,  241,  242,  243,  244,  253,  254,  255,  256,  657,  658
  679,  680,  681,  682,  683,  684,  685,  686,  687,  688,  689,  690,  691,  692,  693,  694
  755,  756,  757,  758,  759,  760,  761,  762,  763,  764,  865,  866,  879,  880,  881,  882
  883,  884,  885,  886,  887,  888,  983,  984,  985,  986,  987,  988,  989,  990,  991,  992
  993,  994,  995,  996,  997,  998,  999, 1000, 1001, 1002, 1323, 1324, 1325, 1326, 1327, 1328
 1329, 1330, 1331, 1332, 1333, 1334, 1335, 1336, 1337, 1338, 1339, 1340, 1341, 1342, 1463, 1464
 1465, 1466, 1467, 1468, 1469, 1470, 1471, 1472, 1473, 1474, 1475, 1476, 1477, 1478, 1479, 1480
 1481, 1482, 1533, 1534, 1535, 1536, 1537, 1538, 1539, 1540, 1541, 1542, 1543, 1544, 1545, 1546
 1547, 1548, 1549, 1550, 1551, 1552
*Elset, elset=_Surf-1_S3, internal, instance=Part-4-bottom-1
   11,   12,   13,   14,  239,  240,  241,  242,  657,  658,  679,  680,  681,  682,  683,  684
  685,  686,  687,  688,  689,  690,  691,  692,  693,  694,  755,  756,  757,  758,  759,  760
  761,  762,  763,  764,  865,  866,  879,  880,  983,  984,  985,  986,  987,  988,  989,  990
  991,  992,  993,  994,  995,  996,  997,  998,  999, 1000, 1001, 1002, 1323, 1324, 1325, 1326
 1327, 1328, 1329, 1330, 1331, 1332, 1333, 1334, 1335, 1336, 1337, 1338, 1339, 1340, 1341, 1342
 1463, 1464, 1465, 1466, 1467, 1468, 1469, 1470, 1471, 1472, 1473, 1474, 1475, 1476, 1477, 1478
 1479, 1480, 1481, 1482, 1533, 1534, 1535, 1536, 1537, 1538, 1539, 1540, 1541, 1542, 1543, 1544
 1545, 1546, 1547, 1548, 1549, 1550, 1551, 1552
*Elset, elset=_Surf-1_S1, internal, instance=Part-4-top-1
  845,  846,  847,  848,  849,  850,  851,  852,  853,  854,  855,  856,  857,  858,  859,  860
  861,  862,  863,  864, 1613, 1614, 1615, 1616, 1617, 1618, 1619, 1620, 1621, 1622, 1623, 1624
 1625, 1626, 1627, 1628, 1629, 1630, 1631, 1632
*Elset, elset=_Surf-1_S6, internal, instance=Part-4-top-1
  257,  262,  267,  272,  277,  282,  287,  292,  297,  302,  307,  312,  317,  322,  327,  332
  337,  342,  347,  352,  357,  362,  367,  372,  377,  382,  387,  392,  397,  402,  407,  412
  417,  422,  427,  432,  437,  442,  447,  452,  457,  462,  467,  472,  477,  482,  487,  492
  497,  502,  507,  512,  517,  522,  527,  532,  537,  542,  547,  552,  557,  562,  567,  572
  577,  582,  587,  592,  597,  602,  607,  612,  617,  622,  627,  632,  637,  642,  647,  652
 1553, 1558, 1563, 1568, 1573, 1578, 1583, 1588, 1593, 1598, 1603, 1608, 1613, 1618, 1623, 1628
*Elset, elset=_Surf-1_S6, internal, instance=Part-4-bottom-1
  257,  262,  267,  272,  277,  282,  287,  292,  297,  302,  307,  312,  317,  322,  327,  332
  337,  342,  347,  352,  357,  362,  367,  372,  377,  382,  387,  392,  397,  402,  407,  412
  417,  422,  427,  432,  437,  442,  447,  452,  457,  462,  467,  472,  477,  482,  487,  492
  497,  502,  507,  512,  517,  522,  527,  532,  537,  542,  547,  552,  557,  562,  567,  572
  577,  582,  587,  592,  597,  602,  607,  612,  617,  622,  627,  632,  637,  642,  647,  652
 1553, 1558, 1563, 1568, 1573, 1578, 1583, 1588, 1593, 1598, 1603, 1608, 1613, 1618, 1623, 1628
*Surface, type=ELEMENT, name=Surf-1
_Surf-1_S4, S4
_Surf-1_S2, S2
_Surf-1_S6, S6
_Surf-1_S3, S3
_Surf-1_S1, S1
** Constraint: coh2bottom
*Tie, name=coh2bottom, adjust=yes
Part-4-bottom-1.OffsetElements-1-BottomSurf, m_Surf-1
** Constraint: coh2top
*Tie, name=coh2top, adjust=yes
Part-4-bottom-1.OffsetElements-1-TopSurf, s_Surf-1
*End Assembly
** 
** MATERIALS
** 
*Material, name=Steel
*Elastic
 2e+11, 0.3
*Material, name=cohe
*Damage Initiation, criterion=MAXS
 4.57e+07, 8.61e+07, 8.61e+07
*Damage Evolution, type=ENERGY
29700.,
*Elastic, type=TRACTION
 2.3e+12, 9.7e+11, 9.7e+11
*Material, name=rock
*Depvar
     38,
*User Material, constants=12
 4.6e+10,     0.186,  7.35e-13,  1.21e-10, -3.15e-11,  2.39e-12,    10000.,  1.18e+06
     0.399,        0.,        0.,        0.
** 
** INTERACTION PROPERTIES
** 
*Surface Interaction, name=IntProp-1
1.,
*Friction
0.,
*Surface Behavior, pressure-overclosure=HARD
** 
** INTERACTIONS
** 
** Interaction: Int-1
*Contact Pair, interaction=IntProp-1, small sliding, type=SURFACE TO SURFACE, adjust=0.0
s_Surf-1, m_Surf-1
** ----------------------------------------------------------------
** 
** STEP: Step-1
** 
*Step, name=Step-1, nlgeom=YES, inc=1000000
*Static
0.01, 1., 1e-08, 0.02
** 
** BOUNDARY CONDITIONS
** 
** Name: BC-1 Type: Displacement/Rotation
*Boundary
Set-1, 3, 3
Set-1, 6, 6
** Name: BC-2 Type: Displacement/Rotation
*Boundary
Set-2, 1, 1
Set-2, 2, 2
Set-2, 4, 4
Set-2, 5, 5
Set-2, 6, 6
** 
** LOADS
** 
** Name: Load-1   Type: Pressure
*Dsload
Surf-1, P, 13.8e+06
** 
** CONTROLS
** 
*Controls, reset
*Controls, analysis=discontinuous
*Controls, parameters=time incrementation
, , , , , , , 10, , , 
** 
** OUTPUT REQUESTS
** 
*Restart, write, frequency=0
** 
** FIELD OUTPUT: F-Output-1
** 
*Output, field
*Node Output
U, 
*Element Output, directions=YES
DMICRT, E, LE, S, SDEG, SDV, STATUS
** 
** HISTORY OUTPUT: H-Output-1
** 
*Output, history, variable=PRESELECT
*End Step
** ----------------------------------------------------------------
** 
** STEP: Step-2
** 
*Step, name=Step-2, nlgeom=YES, inc=1000000
*Static
0.005, 1., 1e-10, 0.005
** 
** BOUNDARY CONDITIONS
** 
** Name: BC-3 Type: Displacement/Rotation
*Boundary
Set-3, 3, 3, -0.0008
** 
** OUTPUT REQUESTS
** 
*Restart, write, frequency=0
** 
** FIELD OUTPUT: F-Output-1
** 
*Output, field
*Node Output
U, 
*Element Output, directions=YES
DMICRT, E, LE, S, SDEG, SDV, STATUS
** 
** HISTORY OUTPUT: H-Output-1
** 
*Output, history, variable=PRESELECT
*End Step
