*Heading
** Job name: Cylinder-2000-fine1 Model name: Calibration-3D-cylinder-fine1
** Generated by: Abaqus/CAE 6.12-1
*Preprint, echo=NO, model=NO, history=NO, contact=NO
**
** PARTS
**
*Part, name=Part-4-bottom
*Node
      1, -0.0126999998,           0., 0.0256500002
      2,           0., 0.0126999998, 0.0476424992
      3,           0.,           0., 0.0256500002
      4, 0.0126999998,           0., 0.0256500002
      5,           0., -0.0126999998, 0.00365750003
      6, -0.0124461455, 0.00252655311,  0.030025214
      7, -0.0118029695, 0.00468827318, 0.0337686501
      8, -0.010897873, 0.00652122451, 0.0369427577
      9, -0.00981493574, 0.00805959199, 0.0396067388
     10, -0.0086121792, 0.0093338294, 0.0418133251
     11, -0.00733289355, 0.0103691211, 0.0436061323
     12, -0.00601224555, 0.0111867292, 0.0450219773
     13, -0.00468271598, 0.0118051758, 0.0460929386
     14, -0.00338017149,  0.012241913, 0.0468492359
     15, -0.00214312854, 0.0125178676, 0.0473271012
     16, -0.00100793818,  0.012659939, 0.0475731269
     17,           0., 0.00127000001, 0.0278492495
     18,           0., 0.00254000002, 0.0300485007
     19,           0., 0.00380999991, 0.0322477482
     20,           0., 0.00508000003, 0.0344469994
** ... 11581 like lines cut
*Element, type=C3D8
  1, 4750, 4751, 5178, 5177, 4076, 4077, 4696, 4695
  2, 4751, 4752, 5179, 5178, 4077, 4078, 4697, 4696
  3, 4752, 4753, 5180, 5179, 4078, 4079, 4698, 4697
  4, 4753, 4754, 5181, 5180, 4079, 4080, 4699, 4698
  5, 4754, 4755, 5182, 5181, 4080, 4081, 4700, 4699
  6, 4755, 4756, 5183, 5182, 4081, 4082, 4701, 4700
  7, 4756, 4757, 5184, 5183, 4082, 4083, 4702, 4701
  8, 4757, 4758, 5185, 5184, 4083, 4084, 4703, 4702
  9, 4758, 4759, 5186, 5185, 4084, 4085, 4704, 4703
 10, 4759, 4091, 4745, 5186, 4085, 4042, 4086, 4704
 11, 5177, 5178, 5187, 5176, 4695, 4696, 4706, 4705
 12, 5178, 5179, 5188, 5187, 4696, 4697, 4707, 4706
 13, 5179, 5180, 5189, 5188, 4697, 4698, 4708, 4707
 14, 5180, 5181, 5190, 5189, 4698, 4699, 4709, 4708
 15, 5181, 5182, 5191, 5190, 4699, 4700, 4710, 4709
 16, 5182, 5183, 5192, 5191, 4700, 4701, 4711, 4710
 17, 5183, 5184, 5193, 5192, 4701, 4702, 4712, 4711
 18, 5184, 5185, 5194, 5193, 4702, 4703, 4713, 4712
 19, 5185, 5186, 5195, 5194, 4703, 4704, 4714, 4713
 20, 5186, 4745, 4746, 5195, 4704, 4086, 4087, 4714
** ... 8116 like lines cut
*Element, type=COH3D8
8137, 10909, 10920, 11068, 10943, 11408, 11419, 11567, 11442
8138, 10920, 10921, 11069, 11068, 11419, 11420, 11568, 11567
8139, 10921, 10922, 11070, 11069, 11420, 11421, 11569, 11568
8140, 10922, 10923, 11071, 11070, 11421, 11422, 11570, 11569
8141, 10923, 10924, 11072, 11071, 11422, 11423, 11571, 11570
8142, 10924, 10910, 10925, 11072, 11423, 11409, 11424, 11571
8143, 10943, 11068, 11073, 10942, 11442, 11567, 11572, 11441
8144, 11068, 11069, 11074, 11073, 11567, 11568, 11573, 11572
8145, 11069, 11070, 11075, 11074, 11568, 11569, 11574, 11573
8146, 11070, 11071, 11076, 11075, 11569, 11570, 11575, 11574
8147, 11071, 11072, 11077, 11076, 11570, 11571, 11576, 11575
8148, 11072, 10925, 10926, 11077, 11571, 11424, 11425, 11576
8149, 10942, 11073, 11078, 10941, 11441, 11572, 11577, 11440
8150, 11073, 11074, 11079, 11078, 11572, 11573, 11578, 11577
8151, 11074, 11075, 11080, 11079, 11573, 11574, 11579, 11578
8152, 11075, 11076, 11081, 11080, 11574, 11575, 11580, 11579
8153, 11076, 11077, 11082, 11081, 11575, 11576, 11581, 11580
8154, 11077, 10926, 10927, 11082, 11576, 11425, 11426, 11581
8155, 10941, 11078, 11083, 10940, 11440, 11577, 11582, 11439
8156, 11078, 11079, 11084, 11083, 11577, 11578, 11583, 11582
** ... 432 like lines cut
*Nset, nset=Set-1
  1123,  1124,  1125,  1126,  1127,  1128,  1129,  1130,  1131,  1132,  1133,  1134,  1135,  1136,  1137,  1138
  1139,  1140,  1141,  1142,  1143,  1144,  1145,  1146,  1147,  1148,  1149,  1150,  1151,  1152,  1153,  1154
  1155,  1156,  1157,  1158,  1159,  1160,  1161,  1162,  1163,  1164,  1165,  1166,  1167,  1168,  1169,  1170
  1171,  1172,  1173,  1174,  1175,  1176,  1177,  1178,  1179,  1180,  1181,  1182,  1183,  1184,  1185,  1186
  1187,  1188,  1189,  1190,  1191,  1192,  1193,  1194,  1195,  1196,  1197,  1198,  1199,  1200,  1201,  1202
  1203,  1204,  1205,  1206,  1207,  1208,  1209,  1210,  1211,  1212,  1213,  1214,  1215,  1216,  1217,  1218
  1219,  1220,  1221,  1222,  1223,  1224,  1225,  1226,  1227,  1228,  1229,  1230,  1231,  1232,  1233,  1234
  1235,  1236,  1237,  1238,  1239,  1240,  1241,  1242,  1243,  1244,  1245,  1246,  1247,  1248,  1249,  1250
  1251,  1252,  1253,  1254,  1255,  1256,  1257,  1258,  1259,  1260,  1261,  1262,  1332,  1333,  1334,  1335
  1336,  1337,  1338,  1339,  1340,  1341,  1342,  1343,  1344,  1345,  1346,  1347,  1348,  1349,  1350,  1351
  1352,  1353,  1354,  1355,  1356,  1357,  1358,  1359,  1360,  1361,  1362,  1363,  1364,  1365,  1366,  1367
  1368,  1369,  1370,  1371,  1372,  1373,  1374,  1375,  1376,  1377,  1378,  1379,  1380,  1381,  1382,  1383
  1384,  1385,  1386,  1387,  1388,  1389,  1390,  1391,  1392,  1393,  1394,  1395,  1396,  1397,  1398,  1399
  1400,  1401,  1402,  1403,  1404,  1405,  1406,  1407,  1408,  1409,  1410,  1411,  1412,  1413,  1414,  1415
  1416,  1417,  1418,  1419,  1420,  1421,  1422,  1423,  1424,  1425,  1426,  1427,  1428,  1429,  1430,  1431
  1432,  1433,  1434,  1435,  1436,  1437,  1438,  1439,  1440,  1441,  1442,  1443,  1444,  1445,  1446,  1447
  1448,  1449,  1450,  1451,  1452,  1453,  1454,  1455,  1456,  1457,  1458,  1459,  1460,  1461,  1462,  1463
  1464,  1465,  1466,  1467,  1468,  1469,  1470,  1471,  1472,  1473,  1474,  1475,  1476,  1477,  1478,  1479
  1480,  1481,  1482,  1483,  1484,  1485,  1486,  1487,  1488,  1489,  1490,  1491,  1492,  1493,  1494,  1495
  1496,  1497,  1498,  1499,  1500,  1501,  1502,  1503,  1504,  1505,  1506,  1507,  1508,  1509,  1510,  1511
** ... 511 like lines cut
*Elset, elset=Set-1
  131,  132,  133,  134,  135,  136,  137,  138,  139,  140,  141,  142,  143,  144,  145,  146
  147,  148,  149,  150,  151,  152,  153,  154,  155,  156,  157,  158,  159,  160,  161,  162
  163,  164,  165,  166,  167,  168,  169,  170,  171,  172,  173,  174,  175,  176,  177,  178
  179,  180,  181,  182,  183,  184,  185,  186,  187,  188,  189,  190,  191,  192,  193,  194
  195,  196,  197,  198,  199,  200,  201,  202,  203,  204,  205,  206,  207,  208,  209,  210
  211,  212,  213,  214,  215,  216,  217,  218,  219,  220,  221,  222,  223,  224,  225,  226
  227,  228,  229,  230,  231,  232,  233,  234,  235,  236,  237,  238,  239,  240,  241,  242
  243,  244,  245,  246,  247,  248,  249,  250,  251,  252,  253,  254,  255,  256,  257,  258
  259,  260,  261,  262,  263,  264,  265,  266,  267,  268,  269,  270,  271,  272,  273,  274
  275,  276,  277,  278,  279,  280,  281,  282,  283,  284,  285,  286,  287,  288,  289,  290
  291,  292,  293,  294,  295,  296,  297,  298,  299,  300,  301,  302,  303,  304,  305,  306
  307,  308,  309,  310,  311,  312,  313,  314,  315,  316,  317,  318,  319,  320,  321,  322
  323,  324,  325,  326,  327,  328,  329,  330,  331,  332,  333,  334,  335,  336,  337,  338
  339,  340,  341,  342,  343,  344,  345,  346,  347,  348,  349,  350,  351,  352,  353,  354
  355,  356,  357,  358,  359,  360,  361,  362,  363,  364,  365,  366,  367,  368,  369,  370
  371,  372,  373,  374,  375,  376,  377,  378,  379,  380,  381,  382,  383,  384,  385,  386
  387,  388,  389,  390,  391,  392,  393,  394,  395,  396,  397,  398,  399,  400,  401,  402
  403,  404,  405,  406,  407,  408,  409,  410,  411,  412,  413,  414,  415,  416,  417,  418
  419,  420,  421,  422,  423,  424,  425,  426,  427,  428,  429,  430,  431,  432,  433,  434
  435,  436,  437,  438,  439,  440,  441,  442,  443,  444,  445,  446,  447,  448,  449,  450
** ... 432 like lines cut
*Nset, nset=Set-2
  1213,  1214,  1215,  1216,  1217,  1218,  1219,  1220,  1221,  1222,  1223,  1224,  1225,  1226,  1227,  1228
  1229,  1230,  1231,  1232,  1233,  1234,  1235,  1236,  1237,  1238,  1239,  1240,  1241,  1242,  1243,  1244
  1245,  1246,  1247,  1248,  1249,  1250,  1251,  1252,  1253,  1254,  1255,  1256,  1257,  1258,  1259,  1260
  1261,  1262,  1263,  1264,  1265,  1266,  1267,  1268,  1269,  1270,  1271,  1272,  1273,  1274,  1275,  1276
  1277,  1278,  1279,  1280,  1281,  1282,  1283,  1284,  1285,  1286,  1287,  1288,  1289,  1290,  1291,  1292
  1293,  1294,  1295,  1296,  1297,  1298,  1299,  1300,  1301,  1302,  1303,  1304,  1305,  1306,  1307,  1308
  1309,  1310,  1311,  1312,  1313,  1314,  1315,  1316,  1317,  1318,  1319,  1320,  1321,  1322,  1323,  1324
  1325,  1326,  1327,  1328,  1329,  1330,  1331,  1367,  1368,  1369,  1370,  1371,  1372,  1373,  1374,  1375
  1376,  1377,  1378,  1379,  1380,  1381,  1382,  1383,  1384,  1385,  1386,  1387,  1388,  1389,  1390,  1391
  1392,  1393,  1394,  1395,  1396,  1397,  1398,  1399,  1400,  1401,  1692,  1693,  1694,  1695,  1696,  1697
  1698,  1699,  1700,  1701,  1702,  1703,  1704,  1705,  1706,  1707,  1708,  1709,  1710,  1711,  1712,  1713
  1714,  1715,  1716,  1717,  1718,  1719,  1720,  1721,  1722,  1723,  1724,  1725,  1726,  2012,  2013,  2014
  2015,  2016,  2017,  2018,  2019,  2020,  2021,  2022,  2023,  2024,  2025,  2026,  2027,  2028,  2029,  2030
  2031,  2032,  2033,  2034,  2035,  2036,  2037,  2038,  2039,  2040,  2041,  2042,  2043,  2044,  2045,  2046
  2047,  2048,  2049,  2050,  2051,  2052,  2053,  2054,  2055,  2056,  2057,  2058,  2059,  2060,  2061,  2062
  2063,  2064,  2065,  2066,  2067,  2068,  2069,  2070,  2071,  2072,  2073,  2074,  2075,  2076,  2077,  2078
  2079,  2080,  2081,  2082,  2083,  2084,  2085,  2086,  2087,  2088,  2089,  2090,  2091,  2092,  2093,  2094
  2095,  2096,  2097,  2098,  2099,  2100,  2101,  2102,  2103,  2104,  2105,  2106,  2107,  2108,  2109,  2110
  2111,  2112,  2113,  2114,  2115,  2116,  2117,  2118,  2119,  2120,  2121,  2122,  2123,  2124,  2125,  2126
  2127,  2128,  2129,  2130,  2131,  2132,  2133,  2134,  2135,  2136,  2137,  2138,  2139,  2140,  2626,  2627
** ... 74 like lines cut
*Elset, elset=Set-2
    1,    2,    3,    4,    5,    6,    7,    8,    9,   10,   11,   12,   13,   14,   15,   16
   17,   18,   19,   20,   21,   22,   23,   24,   25,   26,   27,   28,   29,   30,   31,   32
   33,   34,   35,   36,   37,   38,   39,   40,   41,   42,   43,   44,   45,   46,   47,   48
   49,   50,   51,   52,   53,   54,   55,   56,   57,   58,   59,   60,   61,   62,   63,   64
   65,   66,   67,   68,   69,   70,   71,   72,   73,   74,   75,   76,   77,   78,   79,   80
   81,   82,   83,   84,   85,   86,   87,   88,   89,   90,   91,   92,   93,   94,   95,   96
   97,   98,   99,  100,  101,  102,  103,  104,  105,  106,  107,  108,  109,  110,  111,  112
  113,  114,  115,  116,  117,  118,  119,  120,  121,  122,  123,  124,  125,  126,  127,  128
  129,  130,  899,  900,  901,  902,  903,  904,  905,  906,  907,  908,  909,  910,  911,  912
  913,  914,  915,  916,  917,  918,  919,  920,  921,  922,  923,  924,  925,  926,  927,  928
  929,  930,  931,  932,  933,  934,  935,  936,  937,  938,  939,  940,  941,  942,  943,  944
  945,  946,  947,  948,  949,  950,  951,  952,  953,  954,  955,  956,  957,  958,  959,  960
  961,  962,  963,  964,  965,  966,  967,  968,  969,  970,  971,  972,  973,  974,  975,  976
  977,  978,  979,  980,  981,  982,  983,  984,  985,  986,  987,  988,  989,  990,  991,  992
  993,  994,  995,  996,  997,  998,  999, 1000, 1001, 1002, 1003, 1004, 1005, 1006, 1007, 1008
 1009, 1010, 1011, 1012, 1013, 1014, 1015, 1016, 1017, 1018, 1019, 1020, 1021, 1022, 1023, 1024
 1025, 1026, 1027, 1028, 2565, 2566, 2567, 2568, 2569, 2570, 2571, 2572, 2573, 2574, 2575, 2576
 2577, 2578, 2579, 2580, 2581, 2582, 2583, 2584, 2585, 2586, 2587, 2588, 2589, 2590, 2591, 2592
 2593, 2594, 2595, 2596, 2597, 2598, 2599, 2600, 2601, 2602, 2603, 2604, 2605, 2606, 2607, 2608
 2609, 2610, 2611, 2612, 2613, 2614, 2615, 2616, 2617, 2618, 2619, 2620, 2621, 2622, 2623, 2624
** ... 37 like lines cut
*Elset, elset=OffsetElements-1-Layer-1, generate
 8137,  8588,     1
*Elset, elset=_OffsetElements-1-BottomSurf_S1, internal, generate
 8137,  8588,     1
*Surface, type=ELEMENT, name=OffsetElements-1-BottomSurf
_OffsetElements-1-BottomSurf_S1, S1
*Elset, elset=_OffsetElements-1-TopSurf_S2, internal, generate
 8137,  8588,     1
*Surface, type=ELEMENT, name=OffsetElements-1-TopSurf
_OffsetElements-1-TopSurf_S2, S2
** Section: Steel
*Solid Section, elset=Set-2, material=Steel
,
** Section: rock
*Solid Section, elset=Set-1, material=rock
,
** Section: cohe
*Cohesive Section, elset=OffsetElements-1-Layer-1, material=cohe, response=TRACTION SEPARATION
, 
*End Part
**  
*Part, name=Part-4-top
*Node
      1, -0.0126999998,           0., 0.0256500002
      2,           0., 0.0126999998, 0.0476424992
      3,           0.,           0., 0.0256500002
      4, 0.0126999998,           0., 0.0256500002
      5,           0., -0.0126999998, 0.00365750003
      6, -0.0124461455, 0.00252655311,  0.030025214
      7, -0.0118029695, 0.00468827318, 0.0337686501
      8, -0.010897873, 0.00652122451, 0.0369427577
      9, -0.00981493574, 0.00805959199, 0.0396067388
     10, -0.0086121792, 0.0093338294, 0.0418133251
     11, -0.00733289355, 0.0103691211, 0.0436061323
     12, -0.00601224555, 0.0111867292, 0.0450219773
     13, -0.00468271598, 0.0118051758, 0.0460929386
     14, -0.00338017149,  0.012241913, 0.0468492359
     15, -0.00214312854, 0.0125178676, 0.0473271012
     16, -0.00100793818,  0.012659939, 0.0475731269
     17,           0., 0.00127000001, 0.0278492495
     18,           0., 0.00254000002, 0.0300485007
     19,           0., 0.00380999991, 0.0322477482
     20,           0., 0.00508000003, 0.0344469994
** ... 10583 like lines cut
*Element, type=C3D8
  1, 4750, 4751, 5178, 5177, 4076, 4077, 4696, 4695
  2, 4751, 4752, 5179, 5178, 4077, 4078, 4697, 4696
  3, 4752, 4753, 5180, 5179, 4078, 4079, 4698, 4697
  4, 4753, 4754, 5181, 5180, 4079, 4080, 4699, 4698
  5, 4754, 4755, 5182, 5181, 4080, 4081, 4700, 4699
  6, 4755, 4756, 5183, 5182, 4081, 4082, 4701, 4700
  7, 4756, 4757, 5184, 5183, 4082, 4083, 4702, 4701
  8, 4757, 4758, 5185, 5184, 4083, 4084, 4703, 4702
  9, 4758, 4759, 5186, 5185, 4084, 4085, 4704, 4703
 10, 4759, 4091, 4745, 5186, 4085, 4042, 4086, 4704
 11, 5177, 5178, 5187, 5176, 4695, 4696, 4706, 4705
 12, 5178, 5179, 5188, 5187, 4696, 4697, 4707, 4706
 13, 5179, 5180, 5189, 5188, 4697, 4698, 4708, 4707
 14, 5180, 5181, 5190, 5189, 4698, 4699, 4709, 4708
 15, 5181, 5182, 5191, 5190, 4699, 4700, 4710, 4709
 16, 5182, 5183, 5192, 5191, 4700, 4701, 4711, 4710
 17, 5183, 5184, 5193, 5192, 4701, 4702, 4712, 4711
 18, 5184, 5185, 5194, 5193, 4702, 4703, 4713, 4712
 19, 5185, 5186, 5195, 5194, 4703, 4704, 4714, 4713
 20, 5186, 4745, 4746, 5195, 4704, 4086, 4087, 4714
** ... 8116 like lines cut
*Nset, nset=Set-1
  1123,  1124,  1125,  1126,  1127,  1128,  1129,  1130,  1131,  1132,  1133,  1134,  1135,  1136,  1137,  1138
  1139,  1140,  1141,  1142,  1143,  1144,  1145,  1146,  1147,  1148,  1149,  1150,  1151,  1152,  1153,  1154
  1155,  1156,  1157,  1158,  1159,  1160,  1161,  1162,  1163,  1164,  1165,  1166,  1167,  1168,  1169,  1170
  1171,  1172,  1173,  1174,  1175,  1176,  1177,  1178,  1179,  1180,  1181,  1182,  1183,  1184,  1185,  1186
  1187,  1188,  1189,  1190,  1191,  1192,  1193,  1194,  1195,  1196,  1197,  1198,  1199,  1200,  1201,  1202
  1203,  1204,  1205,  1206,  1207,  1208,  1209,  1210,  1211,  1212,  1213,  1214,  1215,  1216,  1217,  1218
  1219,  1220,  1221,  1222,  1223,  1224,  1225,  1226,  1227,  1228,  1229,  1230,  1231,  1232,  1233,  1234
  1235,  1236,  1237,  1238,  1239,  1240,  1241,  1242,  1243,  1244,  1245,  1246,  1247,  1248,  1249,  1250
  1251,  1252,  1253,  1254,  1255,  1256,  1257,  1258,  1259,  1260,  1261,  1262,  1332,  1333,  1334,  1335
  1336,  1337,  1338,  1339,  1340,  1341,  1342,  1343,  1344,  1345,  1346,  1347,  1348,  1349,  1350,  1351
  1352,  1353,  1354,  1355,  1356,  1357,  1358,  1359,  1360,  1361,  1362,  1363,  1364,  1365,  1366,  1367
  1368,  1369,  1370,  1371,  1372,  1373,  1374,  1375,  1376,  1377,  1378,  1379,  1380,  1381,  1382,  1383
  1384,  1385,  1386,  1387,  1388,  1389,  1390,  1391,  1392,  1393,  1394,  1395,  1396,  1397,  1398,  1399
  1400,  1401,  1402,  1403,  1404,  1405,  1406,  1407,  1408,  1409,  1410,  1411,  1412,  1413,  1414,  1415
  1416,  1417,  1418,  1419,  1420,  1421,  1422,  1423,  1424,  1425,  1426,  1427,  1428,  1429,  1430,  1431
  1432,  1433,  1434,  1435,  1436,  1437,  1438,  1439,  1440,  1441,  1442,  1443,  1444,  1445,  1446,  1447
  1448,  1449,  1450,  1451,  1452,  1453,  1454,  1455,  1456,  1457,  1458,  1459,  1460,  1461,  1462,  1463
  1464,  1465,  1466,  1467,  1468,  1469,  1470,  1471,  1472,  1473,  1474,  1475,  1476,  1477,  1478,  1479
  1480,  1481,  1482,  1483,  1484,  1485,  1486,  1487,  1488,  1489,  1490,  1491,  1492,  1493,  1494,  1495
  1496,  1497,  1498,  1499,  1500,  1501,  1502,  1503,  1504,  1505,  1506,  1507,  1508,  1509,  1510,  1511
** ... 511 like lines cut
*Elset, elset=Set-1
  131,  132,  133,  134,  135,  136,  137,  138,  139,  140,  141,  142,  143,  144,  145,  146
  147,  148,  149,  150,  151,  152,  153,  154,  155,  156,  157,  158,  159,  160,  161,  162
  163,  164,  165,  166,  167,  168,  169,  170,  171,  172,  173,  174,  175,  176,  177,  178
  179,  180,  181,  182,  183,  184,  185,  186,  187,  188,  189,  190,  191,  192,  193,  194
  195,  196,  197,  198,  199,  200,  201,  202,  203,  204,  205,  206,  207,  208,  209,  210
  211,  212,  213,  214,  215,  216,  217,  218,  219,  220,  221,  222,  223,  224,  225,  226
  227,  228,  229,  230,  231,  232,  233,  234,  235,  236,  237,  238,  239,  240,  241,  242
  243,  244,  245,  246,  247,  248,  249,  250,  251,  252,  253,  254,  255,  256,  257,  258
  259,  260,  261,  262,  263,  264,  265,  266,  267,  268,  269,  270,  271,  272,  273,  274
  275,  276,  277,  278,  279,  280,  281,  282,  283,  284,  285,  286,  287,  288,  289,  290
  291,  292,  293,  294,  295,  296,  297,  298,  299,  300,  301,  302,  303,  304,  305,  306
  307,  308,  309,  310,  311,  312,  313,  314,  315,  316,  317,  318,  319,  320,  321,  322
  323,  324,  325,  326,  327,  328,  329,  330,  331,  332,  333,  334,  335,  336,  337,  338
  339,  340,  341,  342,  343,  344,  345,  346,  347,  348,  349,  350,  351,  352,  353,  354
  355,  356,  357,  358,  359,  360,  361,  362,  363,  364,  365,  366,  367,  368,  369,  370
  371,  372,  373,  374,  375,  376,  377,  378,  379,  380,  381,  382,  383,  384,  385,  386
  387,  388,  389,  390,  391,  392,  393,  394,  395,  396,  397,  398,  399,  400,  401,  402
  403,  404,  405,  406,  407,  408,  409,  410,  411,  412,  413,  414,  415,  416,  417,  418
  419,  420,  421,  422,  423,  424,  425,  426,  427,  428,  429,  430,  431,  432,  433,  434
  435,  436,  437,  438,  439,  440,  441,  442,  443,  444,  445,  446,  447,  448,  449,  450
** ... 432 like lines cut
*Nset, nset=Set-2
  1213,  1214,  1215,  1216,  1217,  1218,  1219,  1220,  1221,  1222,  1223,  1224,  1225,  1226,  1227,  1228
  1229,  1230,  1231,  1232,  1233,  1234,  1235,  1236,  1237,  1238,  1239,  1240,  1241,  1242,  1243,  1244
  1245,  1246,  1247,  1248,  1249,  1250,  1251,  1252,  1253,  1254,  1255,  1256,  1257,  1258,  1259,  1260
  1261,  1262,  1263,  1264,  1265,  1266,  1267,  1268,  1269,  1270,  1271,  1272,  1273,  1274,  1275,  1276
  1277,  1278,  1279,  1280,  1281,  1282,  1283,  1284,  1285,  1286,  1287,  1288,  1289,  1290,  1291,  1292
  1293,  1294,  1295,  1296,  1297,  1298,  1299,  1300,  1301,  1302,  1303,  1304,  1305,  1306,  1307,  1308
  1309,  1310,  1311,  1312,  1313,  1314,  1315,  1316,  1317,  1318,  1319,  1320,  1321,  1322,  1323,  1324
  1325,  1326,  1327,  1328,  1329,  1330,  1331,  1367,  1368,  1369,  1370,  1371,  1372,  1373,  1374,  1375
  1376,  1377,  1378,  1379,  1380,  1381,  1382,  1383,  1384,  1385,  1386,  1387,  1388,  1389,  1390,  1391
  1392,  1393,  1394,  1395,  1396,  1397,  1398,  1399,  1400,  1401,  1692,  1693,  1694,  1695,  1696,  1697
  1698,  1699,  1700,  1701,  1702,  1703,  1704,  1705,  1706,  1707,  1708,  1709,  1710,  1711,  1712,  1713
  1714,  1715,  1716,  1717,  1718,  1719,  1720,  1721,  1722,  1723,  1724,  1725,  1726,  2012,  2013,  2014
  2015,  2016,  2017,  2018,  2019,  2020,  2021,  2022,  2023,  2024,  2025,  2026,  2027,  2028,  2029,  2030
  2031,  2032,  2033,  2034,  2035,  2036,  2037,  2038,  2039,  2040,  2041,  2042,  2043,  2044,  2045,  2046
  2047,  2048,  2049,  2050,  2051,  2052,  2053,  2054,  2055,  2056,  2057,  2058,  2059,  2060,  2061,  2062
  2063,  2064,  2065,  2066,  2067,  2068,  2069,  2070,  2071,  2072,  2073,  2074,  2075,  2076,  2077,  2078
  2079,  2080,  2081,  2082,  2083,  2084,  2085,  2086,  2087,  2088,  2089,  2090,  2091,  2092,  2093,  2094
  2095,  2096,  2097,  2098,  2099,  2100,  2101,  2102,  2103,  2104,  2105,  2106,  2107,  2108,  2109,  2110
  2111,  2112,  2113,  2114,  2115,  2116,  2117,  2118,  2119,  2120,  2121,  2122,  2123,  2124,  2125,  2126
  2127,  2128,  2129,  2130,  2131,  2132,  2133,  2134,  2135,  2136,  2137,  2138,  2139,  2140,  2626,  2627
** ... 74 like lines cut
*Elset, elset=Set-2
    1,    2,    3,    4,    5,    6,    7,    8,    9,   10,   11,   12,   13,   14,   15,   16
   17,   18,   19,   20,   21,   22,   23,   24,   25,   26,   27,   28,   29,   30,   31,   32
   33,   34,   35,   36,   37,   38,   39,   40,   41,   42,   43,   44,   45,   46,   47,   48
   49,   50,   51,   52,   53,   54,   55,   56,   57,   58,   59,   60,   61,   62,   63,   64
   65,   66,   67,   68,   69,   70,   71,   72,   73,   74,   75,   76,   77,   78,   79,   80
   81,   82,   83,   84,   85,   86,   87,   88,   89,   90,   91,   92,   93,   94,   95,   96
   97,   98,   99,  100,  101,  102,  103,  104,  105,  106,  107,  108,  109,  110,  111,  112
  113,  114,  115,  116,  117,  118,  119,  120,  121,  122,  123,  124,  125,  126,  127,  128
  129,  130,  899,  900,  901,  902,  903,  904,  905,  906,  907,  908,  909,  910,  911,  912
  913,  914,  915,  916,  917,  918,  919,  920,  921,  922,  923,  924,  925,  926,  927,  928
  929,  930,  931,  932,  933,  934,  935,  936,  937,  938,  939,  940,  941,  942,  943,  944
  945,  946,  947,  948,  949,  950,  951,  952,  953,  954,  955,  956,  957,  958,  959,  960
  961,  962,  963,  964,  965,  966,  967,  968,  969,  970,  971,  972,  973,  974,  975,  976
  977,  978,  979,  980,  981,  982,  983,  984,  985,  986,  987,  988,  989,  990,  991,  992
  993,  994,  995,  996,  997,  998,  999, 1000, 1001, 1002, 1003, 1004, 1005, 1006, 1007, 1008
 1009, 1010, 1011, 1012, 1013, 1014, 1015, 1016, 1017, 1018, 1019, 1020, 1021, 1022, 1023, 1024
 1025, 1026, 1027, 1028, 2565, 2566, 2567, 2568, 2569, 2570, 2571, 2572, 2573, 2574, 2575, 2576
 2577, 2578, 2579, 2580, 2581, 2582, 2583, 2584, 2585, 2586, 2587, 2588, 2589, 2590, 2591, 2592
 2593, 2594, 2595, 2596, 2597, 2598, 2599, 2600, 2601, 2602, 2603, 2604, 2605, 2606, 2607, 2608
 2609, 2610, 2611, 2612, 2613, 2614, 2615, 2616, 2617, 2618, 2619, 2620, 2621, 2622, 2623, 2624
** ... 37 like lines cut
** Section: Steel
*Solid Section, elset=Set-2, material=Steel
,
** Section: rock
*Solid Section, elset=Set-1, material=rock
,
*End Part
**  
**
** ASSEMBLY
**
*Assembly, name=Assembly
**  
*Instance, name=Part-4-bottom-1, part=Part-4-bottom
*End Instance
**  
*Instance, name=Part-4-top-1, part=Part-4-top
          0.,  4.87594251578977e-18,       0.0513
          0.,  4.87594251578977e-18,       0.0513,           1.,  4.87594251578977e-18,       0.0513,         180.
*End Instance
**  
*Nset, nset=Set-1, instance=Part-4-bottom-1
 1282, 1283, 1284, 1285, 1286, 1287, 1288, 1289, 1290, 1291, 1292, 1293, 1294, 1295, 1296, 1297
 1298, 1299, 1300, 1301, 1302, 1303, 1304, 1305, 1306, 1307, 1308, 1309, 1310, 1311, 1312, 1313
 1314, 1315, 1316, 1317, 1318, 1319, 1320, 1321, 1322, 1323, 1324, 1325, 1326, 1327, 1328, 1329
 1330, 1331, 2012, 2013, 2014, 2015, 2016, 2017, 2018, 2019, 2020, 2021, 2022, 2023, 2024, 2025
 2026, 2027, 2028, 2029, 2030, 2031, 2032, 2033, 2034, 2035, 2036, 2037, 2038, 2039, 2040, 2041
 2042, 2043, 2044, 2045, 2046, 2047, 2048, 2049, 2050, 2051, 2052, 2053, 2054, 2055, 2056, 2057
 2058, 2059, 2060, 2061, 2711, 2712, 2713, 2714, 2715, 2716, 2717, 2718, 2719, 2720, 2721, 2722
 2723, 2724, 2725, 2726, 2727, 2728, 2729, 2730, 2731, 2732, 2733, 2734, 2735, 2736, 2737, 2738
 2739, 2740, 2741, 2742, 2743, 2744, 2745, 2784, 2785, 2786, 2787, 2788, 2789, 2790, 2791, 2792
 2793, 2794, 2795, 2796, 2797, 2798, 2799, 2800, 2801, 2802, 2803, 2804, 2805, 2806, 2807, 2808
 2809, 2810, 2811, 2812, 2813, 2814, 2815, 2816, 2817, 2818, 2819, 2820, 2821, 2822, 2823, 2824
 2825, 2826, 2827, 2828, 2829, 2830, 2831, 2832, 2833, 2834, 2835, 2836, 2837, 2838, 2839, 2840
 2841, 2842, 2843, 2844, 2845, 2846, 2847, 2848, 2849, 2850, 2851, 2852, 2853, 2854, 2855, 2856
 2857, 2858, 2859, 2860, 2861, 2862, 2863, 2864, 2865, 2866, 2867, 2868, 3951, 3952, 3953, 3954
 3955, 3956, 3957, 3958, 3959, 3960, 3961, 3962, 3963, 3964, 3965, 3966, 3967, 3968, 3969, 3970
 3971, 3972, 3973, 3974, 3975, 3976, 3977, 3978, 3979, 3980, 3981, 3982, 3983, 3984, 3985, 4000
 4001, 4002, 4003, 4004, 4005, 4006, 4007, 4008, 4009, 4010, 4011, 4012, 4013, 4014, 4015, 4016
 4017, 4018, 4019, 4020, 4021, 4022, 4023, 4024, 4025, 4026, 4027, 4028, 4029, 4030, 4031, 4032
 4033, 4034, 4042, 4043, 4044, 4055, 4063, 4064, 4065, 4070, 4071, 4072, 4073, 4076, 4077, 4078
 4079, 4080, 4081, 4082, 4083, 4084, 4085, 4086, 4087, 4088, 4089, 4090, 4092, 4093, 4094, 4095
** ... 12 like lines cut
*Elset, elset=Set-1, instance=Part-4-bottom-1
    1,    2,    3,    4,    5,    6,    7,    8,    9,   10,   11,   12,   13,   14,   15,   16
   17,   18,   19,   20,   21,   22,   23,   24,   25,   26,   27,   28,   29,   30,   31,   32
   33,   34,   35,   36,   37,   38,   39,   40,   41,   42,   43,   44,   45,   46,   47,   48
   49,   50,   51,   52,   53,   54,   55,   56,   57,   58,   59,   60,   61,   62,   63,   64
   65,  964,  965,  966,  967,  968,  969,  970,  971,  972,  973,  974,  975,  976,  977,  978
  979,  980,  981,  982,  983,  984,  985,  986,  987,  988,  989,  990,  991,  992,  993,  994
  995,  996,  997,  998,  999, 1000, 1001, 1002, 1003, 1004, 1005, 1006, 1007, 1008, 1009, 1010
 1011, 1012, 1013, 1014, 1015, 1016, 1017, 1018, 1019, 1020, 1021, 1022, 1023, 1024, 1025, 1026
 1027, 1028, 2565, 2566, 2567, 2568, 2569, 2570, 2571, 2572, 2573, 2574, 2575, 2576, 2577, 2578
 2579, 2580, 2581, 2582, 2583, 2584, 2585, 2586, 2587, 2588, 2589, 2590, 2591, 2592, 2593, 2594
 2595, 2596, 2597, 2598, 2599, 2600, 2601, 2602, 2603, 2604, 2605, 2606, 2607, 2608, 2609, 2610
 2611, 2612, 2613, 2614, 2615, 2616, 2617, 2618, 2619, 2620, 2621, 2622, 2623, 2624, 2625, 2626
 2627, 2628, 2629, 3783, 3784, 3785, 3786, 3787, 3788, 3789, 3790, 3791, 3792, 3793, 3794, 3795
 3796, 3797, 3798, 3799, 3800, 3801, 3802, 3803, 3804, 3805, 3806, 3807, 3808, 3809, 3810, 3811
 3812, 3813, 3814, 3815, 3816, 3817, 3818, 3819, 3820, 3821, 3822, 3823, 3824, 3825, 3826, 3827
 3828, 3829, 3830, 3896, 3897, 3898, 3899, 3900, 3901, 3902, 3903, 3904, 3905, 3906, 3907, 3908
 3909, 3910, 3911, 3912, 3913, 3914, 3915, 3916, 3917, 3918, 3919, 3920, 3921, 3922, 3923, 3924
 3925, 3926, 3927, 3928, 3929, 3930, 3931, 3932, 3933, 3934, 3935, 3936, 3937, 3938, 3939, 3940
 3941, 3942, 3943, 3944, 3945, 3946, 3947, 3948, 3949, 3950, 3951, 3952, 3953, 3954, 3955, 3956
 3957, 3958, 3959, 3960, 3961, 3962, 3963, 3964, 3965, 3966, 3967, 3968, 3969, 3970, 3971, 3972
** ... 9 like lines cut
*Nset, nset=Set-2, instance=Part-4-bottom-1
 4072,
*Nset, nset=Set-3, instance=Part-4-top-1
 1282, 1283, 1284, 1285, 1286, 1287, 1288, 1289, 1290, 1291, 1292, 1293, 1294, 1295, 1296, 1297
 1298, 1299, 1300, 1301, 1302, 1303, 1304, 1305, 1306, 1307, 1308, 1309, 1310, 1311, 1312, 1313
 1314, 1315, 1316, 1317, 1318, 1319, 1320, 1321, 1322, 1323, 1324, 1325, 1326, 1327, 1328, 1329
 1330, 1331, 2012, 2013, 2014, 2015, 2016, 2017, 2018, 2019, 2020, 2021, 2022, 2023, 2024, 2025
 2026, 2027, 2028, 2029, 2030, 2031, 2032, 2033, 2034, 2035, 2036, 2037, 2038, 2039, 2040, 2041
 2042, 2043, 2044, 2045, 2046, 2047, 2048, 2049, 2050, 2051, 2052, 2053, 2054, 2055, 2056, 2057
 2058, 2059, 2060, 2061, 2711, 2712, 2713, 2714, 2715, 2716, 2717, 2718, 2719, 2720, 2721, 2722
 2723, 2724, 2725, 2726, 2727, 2728, 2729, 2730, 2731, 2732, 2733, 2734, 2735, 2736, 2737, 2738
 2739, 2740, 2741, 2742, 2743, 2744, 2745, 2784, 2785, 2786, 2787, 2788, 2789, 2790, 2791, 2792
 2793, 2794, 2795, 2796, 2797, 2798, 2799, 2800, 2801, 2802, 2803, 2804, 2805, 2806, 2807, 2808
 2809, 2810, 2811, 2812, 2813, 2814, 2815, 2816, 2817, 2818, 2819, 2820, 2821, 2822, 2823, 2824
 2825, 2826, 2827, 2828, 2829, 2830, 2831, 2832, 2833, 2834, 2835, 2836, 2837, 2838, 2839, 2840
 2841, 2842, 2843, 2844, 2845, 2846, 2847, 2848, 2849, 2850, 2851, 2852, 2853, 2854, 2855, 2856
 2857, 2858, 2859, 2860, 2861, 2862, 2863, 2864, 2865, 2866, 2867, 2868, 3951, 3952, 3953, 3954
 3955, 3956, 3957, 3958, 3959, 3960, 3961, 3962, 3963, 3964, 3965, 3966, 3967, 3968, 3969, 3970
 3971, 3972, 3973, 3974, 3975, 3976, 3977, 3978, 3979, 3980, 3981, 3982, 3983, 3984, 3985, 4000
 4001, 4002, 4003, 4004, 4005, 4006, 4007, 4008, 4009, 4010, 4011, 4012, 4013, 4014, 4015, 4016
 4017, 4018, 4019, 4020, 4021, 4022, 4023, 4024, 4025, 4026, 4027, 4028, 4029, 4030, 4031, 4032
 4033, 4034, 4042, 4043, 4044, 4055, 4063, 4064, 4065, 4070, 4071, 4072, 4073, 4076, 4077, 4078
 4079, 4080, 4081, 4082, 4083, 4084, 4085, 4086, 4087, 4088, 4089, 4090, 4092, 4093, 4094, 4095
** ... 12 like lines cut
*Elset, elset=Set-3, instance=Part-4-top-1
    1,    2,    3,    4,    5,    6,    7,    8,    9,   10,   11,   12,   13,   14,   15,   16
   17,   18,   19,   20,   21,   22,   23,   24,   25,   26,   27,   28,   29,   30,   31,   32
   33,   34,   35,   36,   37,   38,   39,   40,   41,   42,   43,   44,   45,   46,   47,   48
   49,   50,   51,   52,   53,   54,   55,   56,   57,   58,   59,   60,   61,   62,   63,   64
   65,  964,  965,  966,  967,  968,  969,  970,  971,  972,  973,  974,  975,  976,  977,  978
  979,  980,  981,  982,  983,  984,  985,  986,  987,  988,  989,  990,  991,  992,  993,  994
  995,  996,  997,  998,  999, 1000, 1001, 1002, 1003, 1004, 1005, 1006, 1007, 1008, 1009, 1010
 1011, 1012, 1013, 1014, 1015, 1016, 1017, 1018, 1019, 1020, 1021, 1022, 1023, 1024, 1025, 1026
 1027, 1028, 2565, 2566, 2567, 2568, 2569, 2570, 2571, 2572, 2573, 2574, 2575, 2576, 2577, 2578
 2579, 2580, 2581, 2582, 2583, 2584, 2585, 2586, 2587, 2588, 2589, 2590, 2591, 2592, 2593, 2594
 2595, 2596, 2597, 2598, 2599, 2600, 2601, 2602, 2603, 2604, 2605, 2606, 2607, 2608, 2609, 2610
 2611, 2612, 2613, 2614, 2615, 2616, 2617, 2618, 2619, 2620, 2621, 2622, 2623, 2624, 2625, 2626
 2627, 2628, 2629, 3783, 3784, 3785, 3786, 3787, 3788, 3789, 3790, 3791, 3792, 3793, 3794, 3795
 3796, 3797, 3798, 3799, 3800, 3801, 3802, 3803, 3804, 3805, 3806, 3807, 3808, 3809, 3810, 3811
 3812, 3813, 3814, 3815, 3816, 3817, 3818, 3819, 3820, 3821, 3822, 3823, 3824, 3825, 3826, 3827
 3828, 3829, 3830, 3896, 3897, 3898, 3899, 3900, 3901, 3902, 3903, 3904, 3905, 3906, 3907, 3908
 3909, 3910, 3911, 3912, 3913, 3914, 3915, 3916, 3917, 3918, 3919, 3920, 3921, 3922, 3923, 3924
 3925, 3926, 3927, 3928, 3929, 3930, 3931, 3932, 3933, 3934, 3935, 3936, 3937, 3938, 3939, 3940
 3941, 3942, 3943, 3944, 3945, 3946, 3947, 3948, 3949, 3950, 3951, 3952, 3953, 3954, 3955, 3956
 3957, 3958, 3959, 3960, 3961, 3962, 3963, 3964, 3965, 3966, 3967, 3968, 3969, 3970, 3971, 3972
** ... 9 like lines cut
*Elset, elset=_m_Surf-1_S2, internal, instance=Part-4-bottom-1
  851,  852,  853,  854,  855,  856,  857,  858,  859,  860,  861,  862,  863,  864,  865,  866
  867,  868,  869,  870,  871,  872,  873,  874,  875,  876,  877,  878,  879,  880,  881,  882
  883,  884,  885,  886,  887,  888,  889,  890,  891,  892,  893,  894,  895,  896,  897,  898
 1029, 1030, 1031, 1032, 1033, 1034, 1035, 1036, 1037, 1038, 1039, 1040, 1041, 1042, 1043, 1044
 1045, 1046, 1047, 1048, 1049, 1050, 1051, 1052, 1053, 1054, 1055, 1056, 1057, 1058, 1059, 1060
 1061, 1062, 1063, 1064, 1065, 1066, 1067, 1068, 1069, 1070, 1071, 1072, 1073, 1074, 1075, 1076
 1797, 1798, 1799, 1800, 1801, 1802, 1803, 1804, 1805, 1806, 1807, 1808, 1809, 1810, 1811, 1812
 1813, 1814, 1815, 1816, 1817, 1818, 1819, 1820, 1821, 1822, 1823, 1824, 1825, 1826, 1827, 1828
 1829, 1830, 1831, 1832, 1833, 1834, 1835, 1836, 1837, 1838, 1839, 1840, 1841, 1842, 1843, 1844
 2695, 2696, 2697, 2698, 2699, 2700, 2701, 2702, 2703, 2704, 2775, 2776, 2777, 2778, 2779, 2780
 2781, 2782, 2783, 2784, 2785, 2786, 2787, 2788, 2789, 2790, 2791, 2792, 2793, 2794, 2795, 2796
 2797, 2798, 2799, 2800, 2801, 2802, 2803, 2804, 2805, 2806, 2807, 2808, 2809, 2810, 2811, 2812
 2813, 2814, 2815, 2816, 2817, 2818, 2819, 2820, 2821, 2822, 2823, 2824, 3175, 3176, 3177, 3178
 3179, 5057, 5058, 5059, 5060, 5061, 5097, 5098, 5099, 5100, 5101, 5102, 5103, 5104, 5105, 5106
 5107, 5108, 5109, 5110, 5111, 5112, 5113, 5114, 5115, 5116, 5117, 5118, 5119, 5120, 5121, 5122
 5123, 5124, 5125, 5126, 5127, 5128, 5129, 5130, 5131, 5132, 5133, 5134, 5135, 5136, 5137, 5138
 5139, 5140, 5141, 5142, 5143, 5144, 5865, 5866, 5867, 5868, 5869, 5870, 5871, 5872, 5873, 5874
 5875, 5876, 5877, 5878, 5879, 5880, 5881, 5882, 5883, 5884, 5885, 5886, 5887, 5888, 5889, 5890
 5891, 5892, 5893, 5894, 5895, 5896, 5897, 5898, 5899, 5900, 5901, 5902, 5903, 5904, 5905, 5906
 5907, 5908, 5909, 5910, 5911, 5912, 5913, 5914, 6265, 6266, 6267, 6268, 6269, 6270, 6271, 6272
** ... 5 like lines cut
*Elset, elset=_m_Surf-1_S4, internal, instance=Part-4-bottom-1, generate
 4584,  4976,     8
*Elset, elset=_m_Surf-1_S3, internal, instance=Part-4-bottom-1, generate
 4977,  5049,     8
*Surface, type=ELEMENT, name=m_Surf-1
_m_Surf-1_S2, S2
_m_Surf-1_S4, S4
_m_Surf-1_S3, S3
*Elset, elset=_s_Surf-1_S2, internal, instance=Part-4-top-1
  851,  852,  853,  854,  855,  856,  857,  858,  859,  860,  861,  862,  863,  864,  865,  866
  867,  868,  869,  870,  871,  872,  873,  874,  875,  876,  877,  878,  879,  880,  881,  882
  883,  884,  885,  886,  887,  888,  889,  890,  891,  892,  893,  894,  895,  896,  897,  898
 1029, 1030, 1031, 1032, 1033, 1034, 1035, 1036, 1037, 1038, 1039, 1040, 1041, 1042, 1043, 1044
 1045, 1046, 1047, 1048, 1049, 1050, 1051, 1052, 1053, 1054, 1055, 1056, 1057, 1058, 1059, 1060
 1061, 1062, 1063, 1064, 1065, 1066, 1067, 1068, 1069, 1070, 1071, 1072, 1073, 1074, 1075, 1076
 1797, 1798, 1799, 1800, 1801, 1802, 1803, 1804, 1805, 1806, 1807, 1808, 1809, 1810, 1811, 1812
 1813, 1814, 1815, 1816, 1817, 1818, 1819, 1820, 1821, 1822, 1823, 1824, 1825, 1826, 1827, 1828
 1829, 1830, 1831, 1832, 1833, 1834, 1835, 1836, 1837, 1838, 1839, 1840, 1841, 1842, 1843, 1844
 2695, 2696, 2697, 2698, 2699, 2700, 2701, 2702, 2703, 2704, 2775, 2776, 2777, 2778, 2779, 2780
 2781, 2782, 2783, 2784, 2785, 2786, 2787, 2788, 2789, 2790, 2791, 2792, 2793, 2794, 2795, 2796
 2797, 2798, 2799, 2800, 2801, 2802, 2803, 2804, 2805, 2806, 2807, 2808, 2809, 2810, 2811, 2812
 2813, 2814, 2815, 2816, 2817, 2818, 2819, 2820, 2821, 2822, 2823, 2824, 3175, 3176, 3177, 3178
 3179, 5057, 5058, 5059, 5060, 5061, 5097, 5098, 5099, 5100, 5101, 5102, 5103, 5104, 5105, 5106
 5107, 5108, 5109, 5110, 5111, 5112, 5113, 5114, 5115, 5116, 5117, 5118, 5119, 5120, 5121, 5122
 5123, 5124, 5125, 5126, 5127, 5128, 5129, 5130, 5131, 5132, 5133, 5134, 5135, 5136, 5137, 5138
 5139, 5140, 5141, 5142, 5143, 5144, 5865, 5866, 5867, 5868, 5869, 5870, 5871, 5872, 5873, 5874
 5875, 5876, 5877, 5878, 5879, 5880, 5881, 5882, 5883, 5884, 5885, 5886, 5887, 5888, 5889, 5890
 5891, 5892, 5893, 5894, 5895, 5896, 5897, 5898, 5899, 5900, 5901, 5902, 5903, 5904, 5905, 5906
 5907, 5908, 5909, 5910, 5911, 5912, 5913, 5914, 6265, 6266, 6267, 6268, 6269, 6270, 6271, 6272
** ... 5 like lines cut
*Elset, elset=_s_Surf-1_S4, internal, instance=Part-4-top-1, generate
 4584,  4976,     8
*Elset, elset=_s_Surf-1_S3, internal, instance=Part-4-top-1, generate
 4977,  5049,     8
*Surface, type=ELEMENT, name=s_Surf-1
_s_Surf-1_S2, S2
_s_Surf-1_S4, S4
_s_Surf-1_S3, S3
*Elset, elset=_Surf-1_S4, internal, instance=Part-4-bottom-1
   51,   52,   53,   54,   55,   56,   57,   58,   59,   60,  116,  117,  118,  119,  120,  121
  122,  123,  124,  125,  126,  127,  128,  129,  130,  136,  142,  148,  154,  160,  166,  172
  178,  184,  190,  196,  202,  208,  214,  220,  226,  232,  238,  244,  250,  256,  262,  268
  274,  280,  286,  292,  298,  304,  310,  316,  322,  328,  334,  340,  346,  352,  358,  364
  370,  376,  382,  388,  394,  400,  406,  412,  418,  424,  430,  436,  442,  448,  454,  460
  466,  472,  478,  484,  490,  496,  502,  508,  514,  520,  526,  532,  538,  544,  550,  556
  562,  568,  574,  580,  586,  592,  598,  604,  610,  616,  622,  628,  634,  640,  646,  652
  658,  664,  670,  676,  682,  688,  694,  700,  706,  712,  718,  724,  730,  736,  742,  748
  754,  760,  766,  772,  778,  784,  790,  796,  802,  808,  814,  820,  826,  832,  838,  844
  850,  856,  862,  868,  874,  880,  886,  892,  898,  949,  950,  951,  952,  953,  954,  955
  956,  957,  958,  964,  965,  966,  967,  968,  969,  970,  971,  972,  973, 2625, 2626, 2627
 2628, 2629, 3175, 3176, 3177, 3178, 3179, 3180, 3181, 3182, 3183, 3184, 3185, 3186, 3187, 3188
 3189, 3190, 3191, 3192, 3193, 3194, 3195, 3196, 3197, 3198, 3199, 3200, 3201, 3202, 3203, 3204
 3205, 3206, 3207, 3208, 3209, 3210, 3211, 3212, 3213, 3214, 3740, 3746, 3752, 3758, 3764, 3770
 3776, 3782, 3788, 3794, 3800, 3806, 3812, 3818, 3824, 3830, 3891, 3892, 3893, 3894, 3895, 3966
 3972, 3978, 3984, 3990, 3996, 4002, 4008, 4014, 4020, 4026, 4032, 4038, 4044, 4050, 4056, 4057
 4058, 4059, 4060, 4061, 4062, 4063, 4064, 4065, 4066, 4067, 4068, 4069, 4070, 4071, 4072, 4073
 4074, 4075, 4076, 4077, 4078, 4079, 4080, 4081, 4082, 4083, 4084, 4085, 4086, 4087, 4088, 4089
 4090, 4091, 4092, 4093, 4094, 4095, 4096, 4097, 4098, 4099, 4100, 4101, 4102, 4103, 4104, 4105
 4106, 4107, 4108, 4109, 4110, 4111, 4112, 4113, 4114, 4115, 4116, 4117, 4118, 4119, 4120, 4121
** ... 37 like lines cut
*Elset, elset=_Surf-1_S4, internal, instance=Part-4-top-1
   51,   52,   53,   54,   55,   56,   57,   58,   59,   60,  116,  117,  118,  119,  120,  121
  122,  123,  124,  125,  126,  127,  128,  129,  130,  136,  142,  148,  154,  160,  166,  172
  178,  184,  190,  196,  202,  208,  214,  220,  226,  232,  238,  244,  250,  256,  262,  268
  274,  280,  286,  292,  298,  304,  310,  316,  322,  328,  334,  340,  346,  352,  358,  364
  370,  376,  382,  388,  394,  400,  406,  412,  418,  424,  430,  436,  442,  448,  454,  460
  466,  472,  478,  484,  490,  496,  502,  508,  514,  520,  526,  532,  538,  544,  550,  556
  562,  568,  574,  580,  586,  592,  598,  604,  610,  616,  622,  628,  634,  640,  646,  652
  658,  664,  670,  676,  682,  688,  694,  700,  706,  712,  718,  724,  730,  736,  742,  748
  754,  760,  766,  772,  778,  784,  790,  796,  802,  808,  814,  820,  826,  832,  838,  844
  850,  856,  862,  868,  874,  880,  886,  892,  898,  949,  950,  951,  952,  953,  954,  955
  956,  957,  958,  964,  965,  966,  967,  968,  969,  970,  971,  972,  973,  974,  975,  976
  977,  978,  979,  980,  981,  982,  983,  984,  985,  986,  987,  988,  989,  990,  991,  992
  993,  994,  995,  996,  997,  998,  999, 1000, 1001, 1002, 1003, 1004, 1005, 1006, 1007, 1008
 1009, 1010, 1011, 1012, 1013, 1014, 1015, 1016, 1017, 1018, 1019, 1020, 1021, 1022, 1023, 2625
 2626, 2627, 2628, 2629, 3175, 3176, 3177, 3178, 3179, 3180, 3181, 3182, 3183, 3184, 3185, 3186
 3187, 3188, 3189, 3190, 3191, 3192, 3193, 3194, 3195, 3196, 3197, 3198, 3199, 3200, 3201, 3202
 3203, 3204, 3205, 3206, 3207, 3208, 3209, 3210, 3211, 3212, 3213, 3214, 3740, 3746, 3752, 3758
 3764, 3770, 3776, 3782, 3788, 3794, 3800, 3806, 3812, 3818, 3824, 3830, 3891, 3892, 3893, 3894
 3895, 3896, 3897, 3898, 3899, 3900, 3901, 3902, 3903, 3904, 3905, 3956, 3957, 3958, 3959, 3960
 3966, 3972, 3978, 3984, 3990, 3996, 4002, 4008, 4014, 4020, 4026, 4032, 4038, 4044, 4050, 4056
** ... 41 like lines cut
*Elset, elset=_Surf-1_S3, internal, instance=Part-4-bottom-1
   61,   62,   63,   64,   65,  959,  960,  961,  962,  963, 2565, 2566, 2567, 2568, 2569, 2570
 2571, 2572, 2573, 2574, 2680, 2681, 2682, 2683, 2684, 2685, 2686, 2687, 2688, 2689, 2690, 2691
 2692, 2693, 2694, 2695, 2696, 2697, 2698, 2699, 2700, 2701, 2702, 2703, 2704, 2705, 2706, 2707
 2708, 2709, 2710, 2711, 2712, 2713, 2714, 2715, 2716, 2717, 2718, 2719, 2720, 2721, 2722, 2723
 2724, 2725, 2726, 2727, 2728, 2729, 2730, 2731, 2732, 2733, 2734, 2735, 2736, 2737, 2738, 2739
 2740, 2741, 2742, 2743, 2744, 2745, 2746, 2747, 2748, 2749, 2750, 2751, 2752, 2753, 2754, 2755
 2756, 2757, 2758, 2759, 2760, 2761, 2762, 2763, 2764, 2765, 2766, 2767, 2768, 2769, 2770, 2771
 2772, 2773, 2774, 3215, 3216, 3217, 3218, 3219, 3220, 3221, 3222, 3223, 3224, 3225, 3226, 3227
 3228, 3229, 3230, 3231, 3232, 3233, 3234, 3235, 3236, 3237, 3238, 3239, 3240, 3241, 3242, 3243
 3244, 3245, 3246, 3247, 3248, 3249, 3250, 3251, 3252, 3253, 3254, 3255, 3256, 3257, 3258, 3259
 3260, 3261, 3262, 3263, 3264, 3265, 3266, 3267, 3268, 3269, 3270, 3271, 3272, 3273, 3274, 3275
 3276, 3277, 3278, 3279, 3280, 3281, 3282, 3283, 3284, 3285, 3286, 3287, 3288, 3289, 3290, 3291
 3292, 3293, 3294, 3831, 3832, 3833, 3834, 3835, 3836, 3837, 3838, 3839, 3840, 3896, 3897, 3898
 3899, 3900, 3901, 3902, 3903, 3904, 3905, 4537, 4538, 4539, 4540, 4541, 4542, 4543, 4544, 4545
 4546, 4547, 4548, 4549, 4550, 4551, 4552, 4553, 4554, 4555, 4556, 4557, 4558, 4559, 4560, 4561
 4562, 4563, 4564, 4565, 4566, 4567, 4568, 4569, 4570, 4571, 4572, 4573, 4574, 4575, 4576, 6345
 6346, 6347, 6348, 6349, 6350, 6351, 6352, 6353, 6354, 6355, 6356, 6357, 6358, 6359, 6360, 6361
 6362, 6363, 6364, 6365, 6366, 6367, 6368, 6369, 6370, 6371, 6372, 6373, 6374, 6375, 6376, 6377
 6378, 6379, 6380, 6381, 6382, 6383, 6384, 7385, 7386, 7387, 7388, 7389, 7390, 7391, 7392, 7393
 7394, 7395, 7396, 7397, 7398, 7399, 7400, 7401, 7402, 7403, 7404, 7405, 7406, 7407, 7408, 7409
** ... 4 like lines cut
*Elset, elset=_Surf-1_S3, internal, instance=Part-4-top-1
   61,   62,   63,   64,   65,  959,  960,  961,  962,  963,  964,  965,  966,  967,  968,  969
  970,  971,  972,  973, 1024, 1025, 1026, 1027, 1028, 2565, 2566, 2567, 2568, 2569, 2570, 2571
 2572, 2573, 2574, 2680, 2681, 2682, 2683, 2684, 2685, 2686, 2687, 2688, 2689, 2690, 2691, 2692
 2693, 2694, 2695, 2696, 2697, 2698, 2699, 2700, 2701, 2702, 2703, 2704, 2705, 2706, 2707, 2708
 2709, 2710, 2711, 2712, 2713, 2714, 2715, 2716, 2717, 2718, 2719, 2720, 2721, 2722, 2723, 2724
 2725, 2726, 2727, 2728, 2729, 2730, 2731, 2732, 2733, 2734, 2735, 2736, 2737, 2738, 2739, 2740
 2741, 2742, 2743, 2744, 2745, 2746, 2747, 2748, 2749, 2750, 2751, 2752, 2753, 2754, 2755, 2756
 2757, 2758, 2759, 2760, 2761, 2762, 2763, 2764, 2765, 2766, 2767, 2768, 2769, 2770, 2771, 2772
 2773, 2774, 3215, 3216, 3217, 3218, 3219, 3220, 3221, 3222, 3223, 3224, 3225, 3226, 3227, 3228
 3229, 3230, 3231, 3232, 3233, 3234, 3235, 3236, 3237, 3238, 3239, 3240, 3241, 3242, 3243, 3244
 3245, 3246, 3247, 3248, 3249, 3250, 3251, 3252, 3253, 3254, 3255, 3256, 3257, 3258, 3259, 3260
 3261, 3262, 3263, 3264, 3265, 3266, 3267, 3268, 3269, 3270, 3271, 3272, 3273, 3274, 3275, 3276
 3277, 3278, 3279, 3280, 3281, 3282, 3283, 3284, 3285, 3286, 3287, 3288, 3289, 3290, 3291, 3292
 3293, 3294, 3831, 3832, 3833, 3834, 3835, 3836, 3837, 3838, 3839, 3840, 3896, 3897, 3898, 3899
 3900, 3901, 3902, 3903, 3904, 3905, 3906, 3907, 3908, 3909, 3910, 3911, 3912, 3913, 3914, 3915
 3916, 3917, 3918, 3919, 3920, 3921, 3922, 3923, 3924, 3925, 3926, 3927, 3928, 3929, 3930, 3931
 3932, 3933, 3934, 3935, 3936, 3937, 3938, 3939, 3940, 3941, 3942, 3943, 3944, 3945, 3946, 3947
 3948, 3949, 3950, 3951, 3952, 3953, 3954, 3955, 4537, 4538, 4539, 4540, 4541, 4542, 4543, 4544
 4545, 4546, 4547, 4548, 4549, 4550, 4551, 4552, 4553, 4554, 4555, 4556, 4557, 4558, 4559, 4560
 4561, 4562, 4563, 4564, 4565, 4566, 4567, 4568, 4569, 4570, 4571, 4572, 4573, 4574, 4575, 4576
** ... 8 like lines cut
*Elset, elset=_Surf-1_S2, internal, instance=Part-4-bottom-1
 1024, 1025, 1026, 1027, 1028, 3695, 3696, 3697, 3698, 3699, 3700, 3701, 3702, 3703, 3704, 3705
 3706, 3707, 3708, 3709, 3710, 3711, 3712, 3713, 3714, 3715, 3716, 3717, 3718, 3719, 3720, 3721
 3722, 3723, 3724, 3725, 3726, 3727, 3728, 3729, 3730, 3731, 3732, 3733, 3734, 3956, 3957, 3958
 3959, 3960, 6865, 6866, 6867, 6868, 6869, 6870, 6871, 6872, 6873, 6874, 6875, 6876, 6877, 6878
 6879, 6880, 6881, 6882, 6883, 6884, 6885, 6886, 6887, 6888, 6889, 6890, 6891, 6892, 6893, 6894
 6895, 6896, 6897, 6898, 6899, 6900, 6901, 6902, 6903, 6904
*Elset, elset=_Surf-1_S2, internal, instance=Part-4-top-1
    1,    2,    3,    4,    5,    6,    7,    8,    9,   10,   11,   12,   13,   14,   15,   16
   17,   18,   19,   20,   21,   22,   23,   24,   25,   26,   27,   28,   29,   30,   31,   32
   33,   34,   35,   36,   37,   38,   39,   40,   41,   42,   43,   44,   45,   46,   47,   48
   49,   50,   51,   52,   53,   54,   55,   56,   57,   58,   59,   60,   61,   62,   63,   64
   65, 1024, 1025, 1026, 1027, 1028, 2565, 2566, 2567, 2568, 2569, 2570, 2571, 2572, 2573, 2574
 2575, 2576, 2577, 2578, 2579, 2580, 2581, 2582, 2583, 2584, 2585, 2586, 2587, 2588, 2589, 2590
 2591, 2592, 2593, 2594, 2595, 2596, 2597, 2598, 2599, 2600, 2601, 2602, 2603, 2604, 2605, 2606
 2607, 2608, 2609, 2610, 2611, 2612, 2613, 2614, 2615, 2616, 2617, 2618, 2619, 2620, 2621, 2622
 2623, 2624, 2625, 2626, 2627, 2628, 2629, 3695, 3696, 3697, 3698, 3699, 3700, 3701, 3702, 3703
 3704, 3705, 3706, 3707, 3708, 3709, 3710, 3711, 3712, 3713, 3714, 3715, 3716, 3717, 3718, 3719
 3720, 3721, 3722, 3723, 3724, 3725, 3726, 3727, 3728, 3729, 3730, 3731, 3732, 3733, 3734, 3956
 3957, 3958, 3959, 3960, 3961, 3962, 3963, 3964, 3965, 3966, 3967, 3968, 3969, 3970, 3971, 3972
 3973, 3974, 3975, 3976, 3977, 3978, 3979, 3980, 3981, 3982, 3983, 3984, 3985, 3986, 3987, 3988
 3989, 3990, 3991, 3992, 3993, 3994, 3995, 3996, 3997, 3998, 3999, 4000, 4001, 4002, 4003, 4004
 4005, 4006, 4007, 4008, 6865, 6866, 6867, 6868, 6869, 6870, 6871, 6872, 6873, 6874, 6875, 6876
 6877, 6878, 6879, 6880, 6881, 6882, 6883, 6884, 6885, 6886, 6887, 6888, 6889, 6890, 6891, 6892
 6893, 6894, 6895, 6896, 6897, 6898, 6899, 6900, 6901, 6902, 6903, 6904, 7945, 7946, 7947, 7948
 7949, 7950, 7951, 7952, 7953, 7954, 7955, 7956, 7957, 7958, 7959, 7960, 7961, 7962, 7963, 7964
 7965, 7966, 7967, 7968, 7969, 7970, 7971, 7972, 7973, 7974, 7975, 7976, 7977, 7978, 7979, 7980
 7981, 7982, 7983, 7984, 7985, 7986, 7987, 7988, 7989, 7990, 7991, 7992
*Elset, elset=_Surf-1_S6, internal, instance=Part-4-bottom-1
 1029, 1035, 1041, 1047, 1053, 1059, 1065, 1071, 1077, 1083, 1089, 1095, 1101, 1107, 1113, 1119
 1125, 1131, 1137, 1143, 1149, 1155, 1161, 1167, 1173, 1179, 1185, 1191, 1197, 1203, 1209, 1215
 1221, 1227, 1233, 1239, 1245, 1251, 1257, 1263, 1269, 1275, 1281, 1287, 1293, 1299, 1305, 1311
 1317, 1323, 1329, 1335, 1341, 1347, 1353, 1359, 1365, 1371, 1377, 1383, 1389, 1395, 1401, 1407
 1413, 1419, 1425, 1431, 1437, 1443, 1449, 1455, 1461, 1467, 1473, 1479, 1485, 1491, 1497, 1503
 1509, 1515, 1521, 1527, 1533, 1539, 1545, 1551, 1557, 1563, 1569, 1575, 1581, 1587, 1593, 1599
 1605, 1611, 1617, 1623, 1629, 1635, 1641, 1647, 1653, 1659, 1665, 1671, 1677, 1683, 1689, 1695
 1701, 1707, 1713, 1719, 1725, 1731, 1737, 1743, 1749, 1755, 1761, 1767, 1773, 1779, 1785, 1791
 1797, 1803, 1809, 1815, 1821, 1827, 1833, 1839, 1845, 1851, 1857, 1863, 1869, 1875, 1881, 1887
 1893, 1899, 1905, 1911, 1917, 1923, 1929, 1935, 1941, 1947, 1953, 1959, 1965, 1971, 1977, 1983
 1989, 1995, 2001, 2007, 2013, 2019, 2025, 2031, 2037, 2043, 2049, 2055, 2061, 2067, 2073, 2079
 2085, 2091, 2097, 2103, 2109, 2115, 2121, 2127, 2133, 2139, 2145, 2151, 2157, 2163, 2169, 2175
 2181, 2187, 2193, 2199, 2205, 2211, 2217, 2223, 2229, 2235, 2241, 2247, 2253, 2259, 2265, 2271
 2277, 2283, 2289, 2295, 2301, 2307, 2313, 2319, 2325, 2331, 2337, 2343, 2349, 2355, 2361, 2367
 2373, 2379, 2385, 2391, 2397, 2403, 2409, 2415, 2421, 2427, 2433, 2439, 2445, 2451, 2457, 2463
 2469, 2475, 2481, 2487, 2493, 2499, 2505, 2511, 2517, 2523, 2529, 2535, 2541, 2547, 2553, 2559
 7945, 7951, 7957, 7963, 7969, 7975, 7981, 7987, 7993, 7999, 8005, 8011, 8017, 8023, 8029, 8035
 8041, 8047, 8053, 8059, 8065, 8071, 8077, 8083, 8089, 8095, 8101, 8107, 8113, 8119, 8125, 8131
*Elset, elset=_Surf-1_S6, internal, instance=Part-4-top-1
 1029, 1035, 1041, 1047, 1053, 1059, 1065, 1071, 1077, 1083, 1089, 1095, 1101, 1107, 1113, 1119
 1125, 1131, 1137, 1143, 1149, 1155, 1161, 1167, 1173, 1179, 1185, 1191, 1197, 1203, 1209, 1215
 1221, 1227, 1233, 1239, 1245, 1251, 1257, 1263, 1269, 1275, 1281, 1287, 1293, 1299, 1305, 1311
 1317, 1323, 1329, 1335, 1341, 1347, 1353, 1359, 1365, 1371, 1377, 1383, 1389, 1395, 1401, 1407
 1413, 1419, 1425, 1431, 1437, 1443, 1449, 1455, 1461, 1467, 1473, 1479, 1485, 1491, 1497, 1503
 1509, 1515, 1521, 1527, 1533, 1539, 1545, 1551, 1557, 1563, 1569, 1575, 1581, 1587, 1593, 1599
 1605, 1611, 1617, 1623, 1629, 1635, 1641, 1647, 1653, 1659, 1665, 1671, 1677, 1683, 1689, 1695
 1701, 1707, 1713, 1719, 1725, 1731, 1737, 1743, 1749, 1755, 1761, 1767, 1773, 1779, 1785, 1791
 1797, 1803, 1809, 1815, 1821, 1827, 1833, 1839, 1845, 1851, 1857, 1863, 1869, 1875, 1881, 1887
 1893, 1899, 1905, 1911, 1917, 1923, 1929, 1935, 1941, 1947, 1953, 1959, 1965, 1971, 1977, 1983
 1989, 1995, 2001, 2007, 2013, 2019, 2025, 2031, 2037, 2043, 2049, 2055, 2061, 2067, 2073, 2079
 2085, 2091, 2097, 2103, 2109, 2115, 2121, 2127, 2133, 2139, 2145, 2151, 2157, 2163, 2169, 2175
 2181, 2187, 2193, 2199, 2205, 2211, 2217, 2223, 2229, 2235, 2241, 2247, 2253, 2259, 2265, 2271
 2277, 2283, 2289, 2295, 2301, 2307, 2313, 2319, 2325, 2331, 2337, 2343, 2349, 2355, 2361, 2367
 2373, 2379, 2385, 2391, 2397, 2403, 2409, 2415, 2421, 2427, 2433, 2439, 2445, 2451, 2457, 2463
 2469, 2475, 2481, 2487, 2493, 2499, 2505, 2511, 2517, 2523, 2529, 2535, 2541, 2547, 2553, 2559
 7945, 7951, 7957, 7963, 7969, 7975, 7981, 7987, 7993, 7999, 8005, 8011, 8017, 8023, 8029, 8035
 8041, 8047, 8053, 8059, 8065, 8071, 8077, 8083, 8089, 8095, 8101, 8107, 8113, 8119, 8125, 8131
*Elset, elset=_Surf-1_S1, internal, instance=Part-4-top-1
 3783, 3784, 3785, 3786, 3787, 3788, 3789, 3790, 3791, 3792, 3793, 3794, 3795, 3796, 3797, 3798
 3799, 3800, 3801, 3802, 3803, 3804, 3805, 3806, 3807, 3808, 3809, 3810, 3811, 3812, 3813, 3814
 3815, 3816, 3817, 3818, 3819, 3820, 3821, 3822, 3823, 3824, 3825, 3826, 3827, 3828, 3829, 3830
 8089, 8090, 8091, 8092, 8093, 8094, 8095, 8096, 8097, 8098, 8099, 8100, 8101, 8102, 8103, 8104
 8105, 8106, 8107, 8108, 8109, 8110, 8111, 8112, 8113, 8114, 8115, 8116, 8117, 8118, 8119, 8120
 8121, 8122, 8123, 8124, 8125, 8126, 8127, 8128, 8129, 8130, 8131, 8132, 8133, 8134, 8135, 8136
*Surface, type=ELEMENT, name=Surf-1
_Surf-1_S4, S4
_Surf-1_S3, S3
_Surf-1_S2, S2
_Surf-1_S6, S6
_Surf-1_S1, S1
** Constraint: coh2bottom
*Tie, name=coh2bottom, adjust=yes
Part-4-bottom-1.OffsetElements-1-BottomSurf, m_Surf-1
** Constraint: coh2top
*Tie, name=coh2top, adjust=yes
Part-4-bottom-1.OffsetElements-1-TopSurf, s_Surf-1
*End Assembly
** 
** MATERIALS
** 
*Material, name=Steel
*Elastic
 2e+11, 0.3
*Material, name=cohe
*Damage Initiation, criterion=MAXS
 4.57e+07, 8.61e+07, 8.61e+07
*Damage Evolution, type=ENERGY
29700.,
*Elastic, type=TRACTION
 2.3e+12, 9.7e+11, 9.7e+11
*Material, name=rock
*Depvar
     38,
*User Material, constants=12
 4.6e+10,     0.186,  7.35e-13,  1.21e-10, -3.15e-11,  2.39e-12,    10000.,  1.18e+06
     0.399,        0.,        0.,        0.
** 
** INTERACTION PROPERTIES
** 
*Surface Interaction, name=IntProp-1
1.,
*Friction
0.,
*Surface Behavior, pressure-overclosure=HARD
** 
** INTERACTIONS
** 
** Interaction: Int-1
*Contact Pair, interaction=IntProp-1, small sliding, type=SURFACE TO SURFACE, adjust=0.0
s_Surf-1, m_Surf-1
** ----------------------------------------------------------------
** 
** STEP: Step-1
** 
*Step, name=Step-1, nlgeom=YES, inc=1000000
*Static
0.01, 1., 1e-08, 0.02
** 
** BOUNDARY CONDITIONS
** 
** Name: BC-1 Type: Displacement/Rotation
*Boundary
Set-1, 3, 3
Set-1, 6, 6
** Name: BC-2 Type: Displacement/Rotation
*Boundary
Set-2, 1, 1
Set-2, 2, 2
Set-2, 4, 4
Set-2, 5, 5
Set-2, 6, 6
** 
** LOADS
** 
** Name: Load-1   Type: Pressure
*Dsload
Surf-1, P, 1.38e+07
** 
** CONTROLS
** 
*Controls, reset
*Controls, analysis=discontinuous
*Controls, parameters=time incrementation
, , , , , , , 10, , , 
** 
** OUTPUT REQUESTS
** 
*Restart, write, frequency=0
** 
** FIELD OUTPUT: F-Output-1
** 
*Output, field
*Node Output
U, 
*Element Output, directions=YES
DMICRT, E, LE, S, SDEG, SDV, STATUS
** 
** HISTORY OUTPUT: H-Output-1
** 
*Output, history, variable=PRESELECT
*End Step
** ----------------------------------------------------------------
** 
** STEP: Step-2
** 
*Step, name=Step-2, nlgeom=YES, inc=1000000
*Static
0.005, 1., 1e-10, 0.005
** 
** BOUNDARY CONDITIONS
** 
** Name: BC-3 Type: Displacement/Rotation
*Boundary
Set-3, 3, 3, -0.0008
** 
** OUTPUT REQUESTS
** 
*Restart, write, frequency=0
** 
** FIELD OUTPUT: F-Output-1
** 
*Output, field
*Node Output
U, 
*Element Output, directions=YES
DMICRT, E, LE, S, SDEG, SDV, STATUS
** 
** HISTORY OUTPUT: H-Output-1
** 
*Output, history, variable=PRESELECT
*End Step
