*Heading
** Job name: Cylinder-1000-fine Model name: Calibration-3D-cylinder-fine
** Generated by: Abaqus/CAE 6.12-1
*Preprint, echo=NO, model=NO, history=NO, contact=NO
**
** PARTS
**
*Part, name=Part-4-bottom
*Node
      1, -0.0126999998,           0., 0.0256500002
      2,           0., 0.0126999998, 0.0476424992
      3,           0.,           0., 0.0256500002
      4, 0.0126999998,           0., 0.0256500002
      5,           0., -0.0126999998, 0.00365750003
      6, -0.0124461455, 0.00252655311,  0.030025214
      7, -0.0118029695, 0.00468827318, 0.0337686501
      8, -0.010897873, 0.00652122451, 0.0369427577
      9, -0.00981493574, 0.00805959199, 0.0396067388
     10, -0.0086121792, 0.0093338294, 0.0418133251
     11, -0.00733289355, 0.0103691211, 0.0436061323
     12, -0.00601224555, 0.0111867292, 0.0450219773
     13, -0.00468271598, 0.0118051758, 0.0460929386
     14, -0.00338017149,  0.012241913, 0.0468492359
     15, -0.00214312854, 0.0125178676, 0.0473271012
     16, -0.00100793818,  0.012659939, 0.0475731269
     17,           0., 0.00127000001, 0.0278492495
     18,           0., 0.00254000002, 0.0300485007
     19,           0., 0.00380999991, 0.0322477482
     20,           0., 0.00508000003, 0.0344469994
** ... 5707 like lines cut
*Element, type=C3D8
 1, 2809,  509, 2819, 2818, 2336, 2337, 2780, 2779
 2,  509,  510, 2820, 2819, 2337, 2338, 2781, 2780
 3,  510,  511, 2821, 2820, 2338, 2339, 2782, 2781
 4,  511, 2346, 2803, 2821, 2339, 2302, 2340, 2782
 5, 2818, 2819, 2822, 2817, 2779, 2780, 2784, 2783
 6, 2819, 2820, 2823, 2822, 2780, 2781, 2785, 2784
 7, 2820, 2821, 2824, 2823, 2781, 2782, 2786, 2785
 8, 2821, 2803, 2804, 2824, 2782, 2340, 2341, 2786
 9, 2817, 2822, 2825, 2816, 2783, 2784, 2788, 2787
10, 2822, 2823, 2826, 2825, 2784, 2785, 2789, 2788
11, 2823, 2824, 2827, 2826, 2785, 2786, 2790, 2789
12, 2824, 2804, 2805, 2827, 2786, 2341, 2342, 2790
13, 2816, 2825, 2828, 2815, 2787, 2788, 2792, 2791
14, 2825, 2826, 2829, 2828, 2788, 2789, 2793, 2792
15, 2826, 2827, 2830, 2829, 2789, 2790, 2794, 2793
16, 2827, 2805, 2806, 2830, 2790, 2342, 2343, 2794
17, 2815, 2828, 2831, 2814, 2791, 2792, 2796, 2795
18, 2828, 2829, 2832, 2831, 2792, 2793, 2797, 2796
19, 2829, 2830, 2833, 2832, 2793, 2794, 2798, 2797
20, 2830, 2806, 2807, 2833, 2794, 2343, 2344, 2798
** ... 3844 like lines cut
*Element, type=COH3D8
3865, 5306, 5317, 5114, 5336, 5613, 5624, 5421, 5643
3866, 5317, 5318, 5115, 5114, 5624, 5625, 5422, 5421
3867, 5318, 5319, 5116, 5115, 5625, 5626, 5423, 5422
3868, 5319, 5320, 5117, 5116, 5626, 5627, 5424, 5423
3869, 5320, 5321, 5118, 5117, 5627, 5628, 5425, 5424
3870, 5321, 5322, 5119, 5118, 5628, 5629, 5426, 5425
3871, 5322, 5307, 5323, 5119, 5629, 5614, 5630, 5426
3872, 5336, 5114, 5120, 5335, 5643, 5421, 5427, 5642
3873, 5114, 5115, 5121, 5120, 5421, 5422, 5428, 5427
3874, 5115, 5116, 5122, 5121, 5422, 5423, 5429, 5428
3875, 5116, 5117, 5123, 5122, 5423, 5424, 5430, 5429
3876, 5117, 5118, 5124, 5123, 5424, 5425, 5431, 5430
3877, 5118, 5119, 5125, 5124, 5425, 5426, 5432, 5431
3878, 5119, 5323, 5324, 5125, 5426, 5630, 5631, 5432
3879, 5335, 5120, 5126, 5334, 5642, 5427, 5433, 5641
3880, 5120, 5121, 5127, 5126, 5427, 5428, 5434, 5433
3881, 5121, 5122, 5128, 5127, 5428, 5429, 5435, 5434
3882, 5122, 5123, 5129, 5128, 5429, 5430, 5436, 5435
3883, 5123, 5124, 5130, 5129, 5430, 5431, 5437, 5436
3884, 5124, 5125, 5131, 5130, 5431, 5432, 5438, 5437
** ... 256 like lines cut
*Nset, nset=Set-1
  521,  522,  523,  524,  525,  526,  527,  528,  529,  530,  531,  532,  533,  534,  535,  536
  537,  538,  539,  540,  541,  542,  543,  544,  545,  546,  547,  548,  549,  550,  551,  552
  553,  554,  555,  556,  557,  558,  559,  560,  561,  562,  563,  564,  565,  566,  567,  568
  569,  570,  571,  572,  573,  574,  575,  576,  577,  578,  579,  580,  581,  582,  583,  584
  585,  586,  587,  588,  589,  590,  591,  592,  593,  594,  595,  596,  597,  598,  599,  600
  601,  602,  603,  604,  605,  606,  607,  608,  609,  610,  611,  612,  613,  614,  615,  616
  617,  618,  619,  620,  621,  622,  623,  624,  625,  626,  627,  628,  629,  630,  631,  632
  633,  634,  635,  636,  637,  638,  639,  640,  641,  642,  643,  644,  645,  646,  647,  648
  649,  650,  651,  652,  653,  654,  655,  656,  657,  658,  659,  660,  661,  662,  663,  664
  665,  666,  667,  668,  669,  670,  671,  672,  673,  674,  675,  676,  677,  678,  679,  680
  681,  682,  683,  684,  685,  686,  687,  688,  689,  690,  691,  692,  693,  694,  695,  696
  697,  698,  699,  700,  701,  702,  703,  704,  705,  706,  707,  708,  709,  710,  711,  712
  713,  714,  715,  716,  717,  718,  719,  720,  721,  722,  723,  724,  725,  726,  727,  728
  729,  730,  731,  732,  733,  734,  735,  736,  737,  738,  739,  740,  741,  742,  743,  744
  745,  746,  747,  748,  749,  750,  751,  752,  753,  754,  755,  756,  757,  758,  759,  760
  761,  762,  763,  764,  765,  766,  767,  768,  769,  770,  771,  772,  773,  774,  775,  776
  777,  778,  779,  780,  781,  782,  783,  784,  785,  786,  787,  788,  789,  790,  791,  792
  793,  794,  795,  796,  797,  798,  799,  800,  801,  802,  803,  804,  805,  806,  807,  808
  809,  810,  811,  812,  813,  814,  815,  816,  817,  818,  819,  820,  821,  822,  823,  824
  825,  826,  827,  828,  829,  830,  831,  832,  833,  834,  835,  836,  876,  877,  878,  879
** ... 230 like lines cut
*Elset, elset=Set-1
   69,   70,   71,   72,   73,   74,   75,   76,   77,   78,   79,   80,   81,   82,   83,   84
   85,   86,   87,   88,   89,   90,   91,   92,   93,   94,   95,   96,   97,   98,   99,  100
  101,  102,  103,  104,  105,  106,  107,  108,  109,  110,  111,  112,  113,  114,  115,  116
  117,  118,  119,  120,  121,  122,  123,  124,  125,  126,  127,  128,  129,  130,  131,  132
  133,  134,  135,  136,  137,  138,  139,  140,  141,  142,  143,  144,  145,  146,  147,  148
  149,  150,  151,  152,  153,  154,  155,  156,  157,  158,  159,  160,  161,  162,  163,  164
  165,  166,  167,  168,  169,  170,  171,  172,  173,  174,  175,  176,  177,  178,  179,  180
  181,  182,  183,  184,  185,  186,  187,  188,  189,  190,  191,  192,  193,  194,  195,  196
  197,  198,  199,  200,  201,  202,  203,  204,  205,  206,  207,  208,  209,  210,  211,  212
  213,  214,  215,  216,  217,  218,  219,  220,  221,  222,  223,  224,  225,  226,  227,  228
  229,  230,  231,  232,  233,  234,  235,  236,  237,  238,  239,  240,  241,  242,  243,  244
  245,  246,  247,  248,  249,  250,  251,  252,  253,  254,  255,  256,  257,  258,  259,  260
  261,  262,  263,  264,  265,  266,  267,  268,  269,  270,  271,  272,  273,  274,  275,  276
  277,  278,  279,  280,  281,  282,  283,  284,  285,  286,  287,  288,  289,  290,  291,  292
  293,  294,  295,  296,  297,  298,  299,  300,  301,  302,  303,  304,  305,  306,  307,  308
  309,  310,  311,  312,  313,  314,  315,  316,  317,  318,  319,  320,  321,  322,  323,  324
  325,  326,  327,  328,  329,  330,  331,  332,  333,  334,  335,  336,  337,  338,  339,  340
  341,  342,  343,  344,  345,  346,  347,  348,  349,  350,  351,  352,  353,  354,  355,  356
  357,  358,  359,  360,  361,  362,  363,  364,  365,  366,  367,  368,  369,  370,  371,  372
  373,  374,  375,  376,  377,  378,  379,  380,  381,  382,  383,  384,  385,  386,  387,  388
** ... 187 like lines cut
*Nset, nset=Set-2
  509,  510,  511,  512,  513,  514,  515,  516,  517,  518,  519,  520,  521,  522,  523,  524
  525,  526,  527,  528,  529,  530,  531,  532,  533,  534,  535,  536,  537,  538,  539,  540
  541,  542,  543,  544,  545,  546,  547,  548,  549,  550,  551,  552,  553,  554,  555,  556
  557,  558,  559,  560,  561,  562,  563,  564,  565,  566,  567,  568,  813,  814,  815,  816
  817,  818,  819,  820,  821,  822,  823,  824,  825,  826,  827,  828,  829,  830,  831,  832
  833,  834,  835,  836,  837,  838,  839,  840,  841,  842,  843,  844,  845,  846,  847,  848
  849,  850,  851,  852,  853,  854,  855,  856,  857,  858,  859,  860,  861,  862,  863,  864
  865,  866,  867,  868,  869,  870,  871,  872,  873,  874,  875,  900,  901,  902,  903,  904
  905,  906,  907,  908,  909,  910,  911,  912,  913,  914,  915,  916,  917,  918,  919,  920
  921,  922,  923, 1124, 1125, 1126, 1127, 1128, 1129, 1130, 1131, 1132, 1133, 1134, 1135, 1136
 1137, 1138, 1139, 1140, 1141, 1142, 1143, 1144, 1145, 1146, 1147, 1302, 1303, 1304, 1305, 1306
 1307, 1308, 1309, 1310, 1311, 1312, 1313, 1314, 1315, 1316, 1317, 1318, 1319, 1320, 1321, 1322
 1323, 1324, 1325, 1326, 1327, 1328, 1329, 1330, 1331, 1332, 1333, 1334, 1335, 1336, 1337, 1338
 1339, 1340, 1341, 1342, 1343, 1344, 1345, 1346, 1347, 1348, 1349, 1350, 1351, 1352, 1353, 1354
 1355, 1356, 1357, 1358, 1359, 1360, 1361, 1362, 1363, 1364, 1365, 1366, 1367, 1368, 1602, 1603
 1604, 1605, 1606, 1607, 1608, 1609, 1610, 1611, 1612, 1613, 1614, 1615, 1616, 1617, 1618, 1619
 1620, 1621, 1622, 1623, 1624, 1625, 1626, 1627, 1628, 1629, 1630, 1631, 1632, 1633, 1634, 1635
 1636, 1637, 1638, 1639, 1640, 1641, 1642, 1643, 1644, 1645, 1646, 1647, 1648, 1649, 1650, 1651
 1652, 1653, 1654, 1655, 1656, 1657, 1658, 1659, 1660, 1661, 1662, 1663, 1664, 1665, 1666, 1667
 1668, 1669, 1670, 1671, 1672, 1673, 1674, 1675, 1676, 1677, 1678, 1679, 1680, 1681, 1682, 1683
** ... 38 like lines cut
*Elset, elset=Set-2
    1,    2,    3,    4,    5,    6,    7,    8,    9,   10,   11,   12,   13,   14,   15,   16
   17,   18,   19,   20,   21,   22,   23,   24,   25,   26,   27,   28,   29,   30,   31,   32
   33,   34,   35,   36,   37,   38,   39,   40,   41,   42,   43,   44,   45,   46,   47,   48
   49,   50,   51,   52,   53,   54,   55,   56,   57,   58,   59,   60,   61,   62,   63,   64
   65,   66,   67,   68,  489,  490,  491,  492,  493,  494,  495,  496,  497,  498,  499,  500
  501,  502,  503,  504,  505,  506,  507,  508,  509,  510,  511,  512,  513,  514,  515,  516
  517,  518,  519,  520,  521,  522,  523,  524,  525,  526,  527,  528,  529,  530,  531,  532
  533,  534,  535,  536,  537,  538,  539,  540,  541,  542,  543,  544,  545,  546,  547,  548
  549,  550,  551,  552,  553,  554,  555,  556, 1397, 1398, 1399, 1400, 1401, 1402, 1403, 1404
 1405, 1406, 1407, 1408, 1409, 1410, 1411, 1412, 1413, 1414, 1415, 1416, 1417, 1418, 1419, 1420
 1421, 1422, 1423, 1424, 1425, 1426, 1427, 1428, 1429, 1430, 1431, 1432, 1433, 1434, 1435, 1436
 1437, 1438, 1439, 1440, 1441, 1442, 1443, 1444, 1445, 1446, 1447, 1448, 1449, 1450, 1451, 1452
 1453, 1454, 1455, 1456, 1457, 1458, 1459, 1460, 1461, 1462, 1463, 1464, 1873, 1874, 1875, 1876
 1877, 1878, 1879, 1880, 1881, 1882, 1883, 1884, 1885, 1886, 1887, 1888, 1889, 1890, 1891, 1892
 1893, 1894, 1895, 1896, 1897, 1898, 1899, 1900, 1901, 1902, 1903, 1904, 1905, 1906, 1907, 1908
 1909, 1910, 1911, 1912, 1913, 1914, 1915, 1916, 1917, 1918, 1919, 1920, 1921, 1922, 1923, 1924
 1925, 1926, 1927, 1928, 1929, 1930, 1931, 1932, 1933, 1934, 1935, 1936, 1937, 1938, 1939, 1940
 1941, 1942, 1943, 1944, 1945, 1946, 1947, 1948, 1949, 1950, 1951, 1952, 1953, 1954, 1955, 1956
 1957, 1958, 1959, 1960, 1961, 1962, 1963, 1964, 1965, 1966, 1967, 1968, 1969, 1970, 1971, 1972
 1973, 1974, 1975, 1976, 1977, 1978, 1979, 1980, 1981, 1982, 1983, 1984, 1985, 1986, 1987, 1988
** ... 15 like lines cut
*Elset, elset=OffsetElements-1-Layer-1, generate
 3865,  4140,     1
*Elset, elset=_OffsetElements-1-BottomSurf_S1, internal, generate
 3865,  4140,     1
*Surface, type=ELEMENT, name=OffsetElements-1-BottomSurf
_OffsetElements-1-BottomSurf_S1, S1
*Elset, elset=_OffsetElements-1-TopSurf_S2, internal, generate
 3865,  4140,     1
*Surface, type=ELEMENT, name=OffsetElements-1-TopSurf
_OffsetElements-1-TopSurf_S2, S2
** Section: Steel
*Solid Section, elset=Set-2, material=Steel
,
** Section: rock
*Solid Section, elset=Set-1, material=rock
,
** Section: cohe
*Cohesive Section, elset=OffsetElements-1-Layer-1, material=cohe, response=TRACTION SEPARATION
, 
*End Part
**  
*Part, name=Part-4-top
*Node
      1, -0.0126999998,           0., 0.0256500002
      2,           0., 0.0126999998, 0.0476424992
      3,           0.,           0., 0.0256500002
      4, 0.0126999998,           0., 0.0256500002
      5,           0., -0.0126999998, 0.00365750003
      6, -0.0124461455, 0.00252655311,  0.030025214
      7, -0.0118029695, 0.00468827318, 0.0337686501
      8, -0.010897873, 0.00652122451, 0.0369427577
      9, -0.00981493574, 0.00805959199, 0.0396067388
     10, -0.0086121792, 0.0093338294, 0.0418133251
     11, -0.00733289355, 0.0103691211, 0.0436061323
     12, -0.00601224555, 0.0111867292, 0.0450219773
     13, -0.00468271598, 0.0118051758, 0.0460929386
     14, -0.00338017149,  0.012241913, 0.0468492359
     15, -0.00214312854, 0.0125178676, 0.0473271012
     16, -0.00100793818,  0.012659939, 0.0475731269
     17,           0., 0.00127000001, 0.0278492495
     18,           0., 0.00254000002, 0.0300485007
     19,           0., 0.00380999991, 0.0322477482
     20,           0., 0.00508000003, 0.0344469994
** ... 5093 like lines cut
*Element, type=C3D8
 1, 2809,  509, 2819, 2818, 2336, 2337, 2780, 2779
 2,  509,  510, 2820, 2819, 2337, 2338, 2781, 2780
 3,  510,  511, 2821, 2820, 2338, 2339, 2782, 2781
 4,  511, 2346, 2803, 2821, 2339, 2302, 2340, 2782
 5, 2818, 2819, 2822, 2817, 2779, 2780, 2784, 2783
 6, 2819, 2820, 2823, 2822, 2780, 2781, 2785, 2784
 7, 2820, 2821, 2824, 2823, 2781, 2782, 2786, 2785
 8, 2821, 2803, 2804, 2824, 2782, 2340, 2341, 2786
 9, 2817, 2822, 2825, 2816, 2783, 2784, 2788, 2787
10, 2822, 2823, 2826, 2825, 2784, 2785, 2789, 2788
11, 2823, 2824, 2827, 2826, 2785, 2786, 2790, 2789
12, 2824, 2804, 2805, 2827, 2786, 2341, 2342, 2790
13, 2816, 2825, 2828, 2815, 2787, 2788, 2792, 2791
14, 2825, 2826, 2829, 2828, 2788, 2789, 2793, 2792
15, 2826, 2827, 2830, 2829, 2789, 2790, 2794, 2793
16, 2827, 2805, 2806, 2830, 2790, 2342, 2343, 2794
17, 2815, 2828, 2831, 2814, 2791, 2792, 2796, 2795
18, 2828, 2829, 2832, 2831, 2792, 2793, 2797, 2796
19, 2829, 2830, 2833, 2832, 2793, 2794, 2798, 2797
20, 2830, 2806, 2807, 2833, 2794, 2343, 2344, 2798
** ... 3844 like lines cut
*Nset, nset=Set-1
  521,  522,  523,  524,  525,  526,  527,  528,  529,  530,  531,  532,  533,  534,  535,  536
  537,  538,  539,  540,  541,  542,  543,  544,  545,  546,  547,  548,  549,  550,  551,  552
  553,  554,  555,  556,  557,  558,  559,  560,  561,  562,  563,  564,  565,  566,  567,  568
  569,  570,  571,  572,  573,  574,  575,  576,  577,  578,  579,  580,  581,  582,  583,  584
  585,  586,  587,  588,  589,  590,  591,  592,  593,  594,  595,  596,  597,  598,  599,  600
  601,  602,  603,  604,  605,  606,  607,  608,  609,  610,  611,  612,  613,  614,  615,  616
  617,  618,  619,  620,  621,  622,  623,  624,  625,  626,  627,  628,  629,  630,  631,  632
  633,  634,  635,  636,  637,  638,  639,  640,  641,  642,  643,  644,  645,  646,  647,  648
  649,  650,  651,  652,  653,  654,  655,  656,  657,  658,  659,  660,  661,  662,  663,  664
  665,  666,  667,  668,  669,  670,  671,  672,  673,  674,  675,  676,  677,  678,  679,  680
  681,  682,  683,  684,  685,  686,  687,  688,  689,  690,  691,  692,  693,  694,  695,  696
  697,  698,  699,  700,  701,  702,  703,  704,  705,  706,  707,  708,  709,  710,  711,  712
  713,  714,  715,  716,  717,  718,  719,  720,  721,  722,  723,  724,  725,  726,  727,  728
  729,  730,  731,  732,  733,  734,  735,  736,  737,  738,  739,  740,  741,  742,  743,  744
  745,  746,  747,  748,  749,  750,  751,  752,  753,  754,  755,  756,  757,  758,  759,  760
  761,  762,  763,  764,  765,  766,  767,  768,  769,  770,  771,  772,  773,  774,  775,  776
  777,  778,  779,  780,  781,  782,  783,  784,  785,  786,  787,  788,  789,  790,  791,  792
  793,  794,  795,  796,  797,  798,  799,  800,  801,  802,  803,  804,  805,  806,  807,  808
  809,  810,  811,  812,  813,  814,  815,  816,  817,  818,  819,  820,  821,  822,  823,  824
  825,  826,  827,  828,  829,  830,  831,  832,  833,  834,  835,  836,  876,  877,  878,  879
** ... 230 like lines cut
*Elset, elset=Set-1
   69,   70,   71,   72,   73,   74,   75,   76,   77,   78,   79,   80,   81,   82,   83,   84
   85,   86,   87,   88,   89,   90,   91,   92,   93,   94,   95,   96,   97,   98,   99,  100
  101,  102,  103,  104,  105,  106,  107,  108,  109,  110,  111,  112,  113,  114,  115,  116
  117,  118,  119,  120,  121,  122,  123,  124,  125,  126,  127,  128,  129,  130,  131,  132
  133,  134,  135,  136,  137,  138,  139,  140,  141,  142,  143,  144,  145,  146,  147,  148
  149,  150,  151,  152,  153,  154,  155,  156,  157,  158,  159,  160,  161,  162,  163,  164
  165,  166,  167,  168,  169,  170,  171,  172,  173,  174,  175,  176,  177,  178,  179,  180
  181,  182,  183,  184,  185,  186,  187,  188,  189,  190,  191,  192,  193,  194,  195,  196
  197,  198,  199,  200,  201,  202,  203,  204,  205,  206,  207,  208,  209,  210,  211,  212
  213,  214,  215,  216,  217,  218,  219,  220,  221,  222,  223,  224,  225,  226,  227,  228
  229,  230,  231,  232,  233,  234,  235,  236,  237,  238,  239,  240,  241,  242,  243,  244
  245,  246,  247,  248,  249,  250,  251,  252,  253,  254,  255,  256,  257,  258,  259,  260
  261,  262,  263,  264,  265,  266,  267,  268,  269,  270,  271,  272,  273,  274,  275,  276
  277,  278,  279,  280,  281,  282,  283,  284,  285,  286,  287,  288,  289,  290,  291,  292
  293,  294,  295,  296,  297,  298,  299,  300,  301,  302,  303,  304,  305,  306,  307,  308
  309,  310,  311,  312,  313,  314,  315,  316,  317,  318,  319,  320,  321,  322,  323,  324
  325,  326,  327,  328,  329,  330,  331,  332,  333,  334,  335,  336,  337,  338,  339,  340
  341,  342,  343,  344,  345,  346,  347,  348,  349,  350,  351,  352,  353,  354,  355,  356
  357,  358,  359,  360,  361,  362,  363,  364,  365,  366,  367,  368,  369,  370,  371,  372
  373,  374,  375,  376,  377,  378,  379,  380,  381,  382,  383,  384,  385,  386,  387,  388
** ... 187 like lines cut
*Nset, nset=Set-2
  509,  510,  511,  512,  513,  514,  515,  516,  517,  518,  519,  520,  521,  522,  523,  524
  525,  526,  527,  528,  529,  530,  531,  532,  533,  534,  535,  536,  537,  538,  539,  540
  541,  542,  543,  544,  545,  546,  547,  548,  549,  550,  551,  552,  553,  554,  555,  556
  557,  558,  559,  560,  561,  562,  563,  564,  565,  566,  567,  568,  813,  814,  815,  816
  817,  818,  819,  820,  821,  822,  823,  824,  825,  826,  827,  828,  829,  830,  831,  832
  833,  834,  835,  836,  837,  838,  839,  840,  841,  842,  843,  844,  845,  846,  847,  848
  849,  850,  851,  852,  853,  854,  855,  856,  857,  858,  859,  860,  861,  862,  863,  864
  865,  866,  867,  868,  869,  870,  871,  872,  873,  874,  875,  900,  901,  902,  903,  904
  905,  906,  907,  908,  909,  910,  911,  912,  913,  914,  915,  916,  917,  918,  919,  920
  921,  922,  923, 1124, 1125, 1126, 1127, 1128, 1129, 1130, 1131, 1132, 1133, 1134, 1135, 1136
 1137, 1138, 1139, 1140, 1141, 1142, 1143, 1144, 1145, 1146, 1147, 1302, 1303, 1304, 1305, 1306
 1307, 1308, 1309, 1310, 1311, 1312, 1313, 1314, 1315, 1316, 1317, 1318, 1319, 1320, 1321, 1322
 1323, 1324, 1325, 1326, 1327, 1328, 1329, 1330, 1331, 1332, 1333, 1334, 1335, 1336, 1337, 1338
 1339, 1340, 1341, 1342, 1343, 1344, 1345, 1346, 1347, 1348, 1349, 1350, 1351, 1352, 1353, 1354
 1355, 1356, 1357, 1358, 1359, 1360, 1361, 1362, 1363, 1364, 1365, 1366, 1367, 1368, 1602, 1603
 1604, 1605, 1606, 1607, 1608, 1609, 1610, 1611, 1612, 1613, 1614, 1615, 1616, 1617, 1618, 1619
 1620, 1621, 1622, 1623, 1624, 1625, 1626, 1627, 1628, 1629, 1630, 1631, 1632, 1633, 1634, 1635
 1636, 1637, 1638, 1639, 1640, 1641, 1642, 1643, 1644, 1645, 1646, 1647, 1648, 1649, 1650, 1651
 1652, 1653, 1654, 1655, 1656, 1657, 1658, 1659, 1660, 1661, 1662, 1663, 1664, 1665, 1666, 1667
 1668, 1669, 1670, 1671, 1672, 1673, 1674, 1675, 1676, 1677, 1678, 1679, 1680, 1681, 1682, 1683
** ... 38 like lines cut
*Elset, elset=Set-2
    1,    2,    3,    4,    5,    6,    7,    8,    9,   10,   11,   12,   13,   14,   15,   16
   17,   18,   19,   20,   21,   22,   23,   24,   25,   26,   27,   28,   29,   30,   31,   32
   33,   34,   35,   36,   37,   38,   39,   40,   41,   42,   43,   44,   45,   46,   47,   48
   49,   50,   51,   52,   53,   54,   55,   56,   57,   58,   59,   60,   61,   62,   63,   64
   65,   66,   67,   68,  489,  490,  491,  492,  493,  494,  495,  496,  497,  498,  499,  500
  501,  502,  503,  504,  505,  506,  507,  508,  509,  510,  511,  512,  513,  514,  515,  516
  517,  518,  519,  520,  521,  522,  523,  524,  525,  526,  527,  528,  529,  530,  531,  532
  533,  534,  535,  536,  537,  538,  539,  540,  541,  542,  543,  544,  545,  546,  547,  548
  549,  550,  551,  552,  553,  554,  555,  556, 1397, 1398, 1399, 1400, 1401, 1402, 1403, 1404
 1405, 1406, 1407, 1408, 1409, 1410, 1411, 1412, 1413, 1414, 1415, 1416, 1417, 1418, 1419, 1420
 1421, 1422, 1423, 1424, 1425, 1426, 1427, 1428, 1429, 1430, 1431, 1432, 1433, 1434, 1435, 1436
 1437, 1438, 1439, 1440, 1441, 1442, 1443, 1444, 1445, 1446, 1447, 1448, 1449, 1450, 1451, 1452
 1453, 1454, 1455, 1456, 1457, 1458, 1459, 1460, 1461, 1462, 1463, 1464, 1873, 1874, 1875, 1876
 1877, 1878, 1879, 1880, 1881, 1882, 1883, 1884, 1885, 1886, 1887, 1888, 1889, 1890, 1891, 1892
 1893, 1894, 1895, 1896, 1897, 1898, 1899, 1900, 1901, 1902, 1903, 1904, 1905, 1906, 1907, 1908
 1909, 1910, 1911, 1912, 1913, 1914, 1915, 1916, 1917, 1918, 1919, 1920, 1921, 1922, 1923, 1924
 1925, 1926, 1927, 1928, 1929, 1930, 1931, 1932, 1933, 1934, 1935, 1936, 1937, 1938, 1939, 1940
 1941, 1942, 1943, 1944, 1945, 1946, 1947, 1948, 1949, 1950, 1951, 1952, 1953, 1954, 1955, 1956
 1957, 1958, 1959, 1960, 1961, 1962, 1963, 1964, 1965, 1966, 1967, 1968, 1969, 1970, 1971, 1972
 1973, 1974, 1975, 1976, 1977, 1978, 1979, 1980, 1981, 1982, 1983, 1984, 1985, 1986, 1987, 1988
** ... 15 like lines cut
** Section: Steel
*Solid Section, elset=Set-2, material=Steel
,
** Section: rock
*Solid Section, elset=Set-1, material=rock
,
*End Part
**  
**
** ASSEMBLY
**
*Assembly, name=Assembly
**  
*Instance, name=Part-4-top-1, part=Part-4-top
          0.,  4.87594251578977e-18,       0.0513
          0.,  4.87594251578977e-18,       0.0513,           1.,  4.87594251578977e-18,       0.0513,         180.
*End Instance
**  
*Instance, name=Part-4-bottom-1, part=Part-4-bottom
*End Instance
**  
*Nset, nset=Set-1, instance=Part-4-bottom-1
  852,  853,  854,  855,  856,  857,  858,  859,  860,  861,  862,  863,  864,  865,  866,  867
  868,  869,  870,  871,  872,  873,  874,  875, 1302, 1303, 1304, 1305, 1306, 1307, 1308, 1309
 1310, 1311, 1312, 1313, 1314, 1315, 1316, 1317, 1318, 1319, 1320, 1321, 1322, 1323, 1324, 1325
 1650, 1651, 1652, 1653, 1654, 1655, 1656, 1657, 1658, 1659, 1660, 1661, 1662, 1663, 1664, 1665
 1666, 1667, 1668, 1669, 1670, 1671, 1672, 1673, 1703, 1704, 1705, 1706, 1707, 1708, 1709, 1710
 1711, 1712, 1713, 1714, 1715, 1716, 1717, 1718, 1719, 1720, 1721, 1722, 1723, 1724, 1725, 1726
 1727, 1728, 1729, 1730, 1731, 1732, 1733, 1734, 1735, 1736, 1737, 1738, 1739, 1740, 1741, 1742
 1743, 1744, 1745, 1746, 1747, 1748, 1749, 1750, 2242, 2243, 2244, 2245, 2246, 2247, 2248, 2249
 2250, 2251, 2252, 2253, 2254, 2255, 2256, 2257, 2258, 2259, 2260, 2261, 2262, 2263, 2264, 2265
 2274, 2275, 2276, 2277, 2278, 2279, 2280, 2281, 2282, 2283, 2284, 2285, 2286, 2287, 2288, 2289
 2290, 2291, 2292, 2293, 2294, 2295, 2296, 2297, 2302, 2303, 2304, 2315, 2323, 2324, 2325, 2330
 2331, 2332, 2333, 2336, 2337, 2338, 2339, 2340, 2341, 2342, 2343, 2344, 2345, 2347, 2348, 2349
 2350, 2351, 2352, 2353, 2354, 2355, 2471, 2472, 2473, 2474, 2475, 2476, 2477, 2478, 2479, 2480
 2481, 2482, 2483, 2484, 2485, 2584, 2585, 2586, 2587, 2588, 2589, 2590, 2591, 2592, 2593, 2594
 2595, 2596, 2597, 2598, 2600, 2601, 2602, 2603, 2679, 2680, 2681, 2682, 2683, 2684, 2685, 2686
 2687, 2688, 2689, 2690, 2691, 2692, 2693, 2694, 2695, 2696, 2697, 2698, 2702, 2703, 2704, 2705
 2706, 2707, 2708, 2709, 2710, 2711, 2712, 2713, 2714, 2715, 2716, 2717, 2718, 2719, 2720, 2767
 2768, 2769, 2770, 2771, 2772, 2773, 2774, 2775, 2776, 2777, 2778, 2779, 2780, 2781, 2782, 2783
 2784, 2785, 2786, 2787, 2788, 2789, 2790, 2791, 2792, 2793, 2794, 2795, 2796, 2797, 2798, 2799
 2800, 2801, 2802
*Elset, elset=Set-1, instance=Part-4-bottom-1
    1,    2,    3,    4,    5,    6,    7,    8,    9,   10,   11,   12,   13,   14,   15,   16
   17,   18,   19,   20,   21,   22,   23,   24,   25,   26,   27,   28,   29,   30,   31,   32
   33,   34,  523,  524,  525,  526,  527,  528,  529,  530,  531,  532,  533,  534,  535,  536
  537,  538,  539,  540,  541,  542,  543,  544,  545,  546,  547,  548,  549,  550,  551,  552
  553,  554,  555,  556, 1397, 1398, 1399, 1400, 1401, 1402, 1403, 1404, 1405, 1406, 1407, 1408
 1409, 1410, 1411, 1412, 1413, 1414, 1415, 1416, 1417, 1418, 1419, 1420, 1421, 1422, 1423, 1424
 1425, 1426, 1427, 1428, 1429, 1430, 1908, 1909, 1910, 1911, 1912, 1913, 1914, 1915, 1916, 1917
 1918, 1919, 1920, 1921, 1922, 1923, 1924, 1925, 1926, 1927, 1928, 1929, 1930, 1931, 1932, 1933
 1934, 1935, 1936, 1937, 1938, 1939, 1940, 1941, 1942, 1977, 1978, 1979, 1980, 1981, 1982, 1983
 1984, 1985, 1986, 1987, 1988, 1989, 1990, 1991, 1992, 1993, 1994, 1995, 1996, 1997, 1998, 1999
 2000, 2001, 2002, 2003, 2004, 2005, 2006, 2007, 2008, 2009, 2010, 2011, 2012, 2013, 2014, 2015
 2016, 2017, 2018, 2019, 2020, 2021, 2022, 2023, 2024, 2025, 2026, 2027, 2028, 2029, 2030, 2031
 2032, 2033, 2034, 2035, 2036, 2037, 2038, 2039, 2040, 2041, 2042, 2043, 2044, 2045, 3725, 3726
 3727, 3728, 3729, 3730, 3731, 3732, 3733, 3734, 3735, 3736, 3737, 3738, 3739, 3740, 3741, 3742
 3743, 3744, 3745, 3746, 3747, 3748, 3749, 3750, 3751, 3752, 3753, 3754, 3755, 3756, 3757, 3758
 3759, 3830, 3831, 3832, 3833, 3834, 3835, 3836, 3837, 3838, 3839, 3840, 3841, 3842, 3843, 3844
 3845, 3846, 3847, 3848, 3849, 3850, 3851, 3852, 3853, 3854, 3855, 3856, 3857, 3858, 3859, 3860
 3861, 3862, 3863, 3864
*Nset, nset=Set-2, instance=Part-4-bottom-1
 2332,
*Nset, nset=Set-3, instance=Part-4-top-1
  852,  853,  854,  855,  856,  857,  858,  859,  860,  861,  862,  863,  864,  865,  866,  867
  868,  869,  870,  871,  872,  873,  874,  875, 1302, 1303, 1304, 1305, 1306, 1307, 1308, 1309
 1310, 1311, 1312, 1313, 1314, 1315, 1316, 1317, 1318, 1319, 1320, 1321, 1322, 1323, 1324, 1325
 1650, 1651, 1652, 1653, 1654, 1655, 1656, 1657, 1658, 1659, 1660, 1661, 1662, 1663, 1664, 1665
 1666, 1667, 1668, 1669, 1670, 1671, 1672, 1673, 1703, 1704, 1705, 1706, 1707, 1708, 1709, 1710
 1711, 1712, 1713, 1714, 1715, 1716, 1717, 1718, 1719, 1720, 1721, 1722, 1723, 1724, 1725, 1726
 1727, 1728, 1729, 1730, 1731, 1732, 1733, 1734, 1735, 1736, 1737, 1738, 1739, 1740, 1741, 1742
 1743, 1744, 1745, 1746, 1747, 1748, 1749, 1750, 2242, 2243, 2244, 2245, 2246, 2247, 2248, 2249
 2250, 2251, 2252, 2253, 2254, 2255, 2256, 2257, 2258, 2259, 2260, 2261, 2262, 2263, 2264, 2265
 2274, 2275, 2276, 2277, 2278, 2279, 2280, 2281, 2282, 2283, 2284, 2285, 2286, 2287, 2288, 2289
 2290, 2291, 2292, 2293, 2294, 2295, 2296, 2297, 2302, 2303, 2304, 2315, 2323, 2324, 2325, 2330
 2331, 2332, 2333, 2336, 2337, 2338, 2339, 2340, 2341, 2342, 2343, 2344, 2345, 2347, 2348, 2349
 2350, 2351, 2352, 2353, 2354, 2355, 2471, 2472, 2473, 2474, 2475, 2476, 2477, 2478, 2479, 2480
 2481, 2482, 2483, 2484, 2485, 2584, 2585, 2586, 2587, 2588, 2589, 2590, 2591, 2592, 2593, 2594
 2595, 2596, 2597, 2598, 2600, 2601, 2602, 2603, 2679, 2680, 2681, 2682, 2683, 2684, 2685, 2686
 2687, 2688, 2689, 2690, 2691, 2692, 2693, 2694, 2695, 2696, 2697, 2698, 2702, 2703, 2704, 2705
 2706, 2707, 2708, 2709, 2710, 2711, 2712, 2713, 2714, 2715, 2716, 2717, 2718, 2719, 2720, 2767
 2768, 2769, 2770, 2771, 2772, 2773, 2774, 2775, 2776, 2777, 2778, 2779, 2780, 2781, 2782, 2783
 2784, 2785, 2786, 2787, 2788, 2789, 2790, 2791, 2792, 2793, 2794, 2795, 2796, 2797, 2798, 2799
 2800, 2801, 2802
*Elset, elset=Set-3, instance=Part-4-top-1
    1,    2,    3,    4,    5,    6,    7,    8,    9,   10,   11,   12,   13,   14,   15,   16
   17,   18,   19,   20,   21,   22,   23,   24,   25,   26,   27,   28,   29,   30,   31,   32
   33,   34,  523,  524,  525,  526,  527,  528,  529,  530,  531,  532,  533,  534,  535,  536
  537,  538,  539,  540,  541,  542,  543,  544,  545,  546,  547,  548,  549,  550,  551,  552
  553,  554,  555,  556, 1397, 1398, 1399, 1400, 1401, 1402, 1403, 1404, 1405, 1406, 1407, 1408
 1409, 1410, 1411, 1412, 1413, 1414, 1415, 1416, 1417, 1418, 1419, 1420, 1421, 1422, 1423, 1424
 1425, 1426, 1427, 1428, 1429, 1430, 1908, 1909, 1910, 1911, 1912, 1913, 1914, 1915, 1916, 1917
 1918, 1919, 1920, 1921, 1922, 1923, 1924, 1925, 1926, 1927, 1928, 1929, 1930, 1931, 1932, 1933
 1934, 1935, 1936, 1937, 1938, 1939, 1940, 1941, 1942, 1977, 1978, 1979, 1980, 1981, 1982, 1983
 1984, 1985, 1986, 1987, 1988, 1989, 1990, 1991, 1992, 1993, 1994, 1995, 1996, 1997, 1998, 1999
 2000, 2001, 2002, 2003, 2004, 2005, 2006, 2007, 2008, 2009, 2010, 2011, 2012, 2013, 2014, 2015
 2016, 2017, 2018, 2019, 2020, 2021, 2022, 2023, 2024, 2025, 2026, 2027, 2028, 2029, 2030, 2031
 2032, 2033, 2034, 2035, 2036, 2037, 2038, 2039, 2040, 2041, 2042, 2043, 2044, 2045, 3725, 3726
 3727, 3728, 3729, 3730, 3731, 3732, 3733, 3734, 3735, 3736, 3737, 3738, 3739, 3740, 3741, 3742
 3743, 3744, 3745, 3746, 3747, 3748, 3749, 3750, 3751, 3752, 3753, 3754, 3755, 3756, 3757, 3758
 3759, 3830, 3831, 3832, 3833, 3834, 3835, 3836, 3837, 3838, 3839, 3840, 3841, 3842, 3843, 3844
 3845, 3846, 3847, 3848, 3849, 3850, 3851, 3852, 3853, 3854, 3855, 3856, 3857, 3858, 3859, 3860
 3861, 3862, 3863, 3864
*Elset, elset=_s_Surf-1_S2, internal, instance=Part-4-top-1
  454,  455,  456,  457,  458,  459,  460,  461,  462,  463,  464,  465,  466,  467,  468,  469
  470,  471,  472,  473,  474,  475,  476,  477,  478,  479,  480,  481,  482,  483,  484,  485
  486,  487,  488,  557,  558,  559,  560,  561,  562,  563,  564,  565,  566,  567,  568,  569
  570,  571,  572,  573,  574,  575,  576,  577,  578,  579,  580,  581,  582,  583,  584,  585
  586,  587,  588,  589,  590,  591,  977,  978,  979,  980,  981,  982,  983,  984,  985,  986
  987,  988,  989,  990,  991,  992,  993,  994,  995,  996,  997,  998,  999, 1000, 1001, 1002
 1003, 1004, 1005, 1006, 1007, 1008, 1009, 1010, 1011, 1465, 1466, 1467, 1468, 1489, 1490, 1491
 1492, 1493, 1494, 1495, 1496, 1497, 1498, 1499, 1500, 1501, 1502, 1503, 1504, 1505, 1506, 1507
 1508, 1509, 1510, 1511, 1512, 1633, 1634, 1635, 1636, 1637, 1638, 2453, 2454, 2455, 2456, 2457
 2458, 2489, 2490, 2491, 2492, 2493, 2494, 2495, 2496, 2497, 2498, 2499, 2500, 2501, 2502, 2503
 2504, 2505, 2506, 2507, 2508, 2509, 2510, 2511, 2512, 2513, 2514, 2515, 2516, 2517, 2518, 2519
 2520, 2521, 2522, 2523, 2909, 2910, 2911, 2912, 2913, 2914, 2915, 2916, 2917, 2918, 2919, 2920
 2921, 2922, 2923, 2924, 2925, 2926, 2927, 2928, 2929, 2930, 2931, 2932, 3053, 3054, 3055, 3056
 3077, 3078, 3079, 3080, 3081, 3082, 3317, 3318, 3319, 3320, 3321, 3322, 3323, 3324, 3325, 3326
 3327, 3328, 3329, 3330, 3331, 3332, 3333, 3334, 3335, 3336, 3337, 3338, 3339, 3340, 3461, 3462
 3463, 3464, 3485, 3486, 3487, 3488, 3489, 3490
*Elset, elset=_s_Surf-1_S4, internal, instance=Part-4-top-1, generate
 2290,  2428,     6
*Elset, elset=_s_Surf-1_S3, internal, instance=Part-4-top-1, generate
 2429,  2447,     6
*Surface, type=ELEMENT, name=s_Surf-1
_s_Surf-1_S2, S2
_s_Surf-1_S4, S4
_s_Surf-1_S3, S3
*Elset, elset=_Surf-1_S4, internal, instance=Part-4-top-1
   25,   26,   27,   28,   59,   60,   61,   62,   63,   64,   65,   66,   67,   68,   75,   82
   89,   96,  103,  110,  117,  124,  131,  138,  145,  152,  159,  166,  173,  180,  187,  194
  201,  208,  215,  222,  229,  236,  243,  250,  257,  264,  271,  278,  285,  292,  299,  306
  313,  320,  327,  334,  341,  348,  355,  362,  369,  376,  383,  390,  397,  404,  411,  418
  425,  432,  439,  446,  453,  460,  467,  474,  481,  488,  513,  514,  515,  516,  523,  524
  525,  526,  527,  528,  529,  530,  531,  532,  533,  534,  535,  536,  537,  538,  539,  540
  541,  542,  543,  544,  545,  546,  547,  548,  549,  550, 1425, 1426, 1427, 1428, 1429, 1430
 1633, 1634, 1635, 1636, 1637, 1638, 1639, 1640, 1641, 1642, 1643, 1644, 1645, 1646, 1647, 1648
 1649, 1650, 1651, 1652, 1653, 1654, 1655, 1656, 1657, 1658, 1659, 1660, 1661, 1662, 1663, 1664
 1665, 1666, 1667, 1668, 1879, 1886, 1893, 1900, 1907, 1914, 1921, 1928, 1935, 1942, 1971, 1972
 1973, 1974, 1975, 1976, 1977, 1978, 1979, 1980, 2005, 2006, 2007, 2008, 2009, 2010, 2017, 2024
 2031, 2038, 2045, 2052, 2059, 2066, 2073, 2080, 2081, 2082, 2083, 2084, 2085, 2086, 2087, 2088
 2089, 2090, 2091, 2092, 2093, 2094, 2095, 2096, 2097, 2098, 2099, 2100, 2101, 2102, 2103, 2104
 2429, 2430, 2431, 2432, 2433, 2434, 2435, 2436, 2437, 2438, 2439, 2440, 2441, 2442, 2443, 2444
 2445, 2446, 2447, 2448, 2449, 2450, 2451, 2452, 2453, 2454, 2455, 2456, 2457, 2458, 2459, 2460
 2461, 2462, 2463, 2464, 2465, 2466, 2467, 2468, 2469, 2470, 2471, 2472, 2473, 2474, 2475, 2476
 2477, 2478, 2479, 2480, 2481, 2482, 2483, 2484, 2485, 2486, 2487, 2488, 2495, 2502, 2509, 2516
 2523, 2530, 2537, 2544, 2551, 2558, 2565, 2572, 2579, 2586, 2593, 2600, 2607, 2614, 2621, 2628
 2635, 2642, 2649, 2656, 2663, 2670, 2677, 2684, 2691, 2698, 2705, 2712, 2719, 2726, 2733, 2740
 2747, 2754, 2761, 2768, 2775, 2782, 2789, 2796, 2803, 2810, 2817, 2824, 2831, 2838, 2845, 2852
** ... 7 like lines cut
*Elset, elset=_Surf-1_S4, internal, instance=Part-4-bottom-1
   25,   26,   27,   28,   59,   60,   61,   62,   63,   64,   65,   66,   67,   68,   75,   82
   89,   96,  103,  110,  117,  124,  131,  138,  145,  152,  159,  166,  173,  180,  187,  194
  201,  208,  215,  222,  229,  236,  243,  250,  257,  264,  271,  278,  285,  292,  299,  306
  313,  320,  327,  334,  341,  348,  355,  362,  369,  376,  383,  390,  397,  404,  411,  418
  425,  432,  439,  446,  453,  460,  467,  474,  481,  488,  513,  514,  515,  516,  523,  524
  525,  526, 1425, 1426, 1427, 1428, 1429, 1430, 1633, 1634, 1635, 1636, 1637, 1638, 1639, 1640
 1641, 1642, 1643, 1644, 1645, 1646, 1647, 1648, 1649, 1650, 1651, 1652, 1653, 1654, 1655, 1656
 1657, 1658, 1659, 1660, 1661, 1662, 1663, 1664, 1665, 1666, 1667, 1668, 1879, 1886, 1893, 1900
 1907, 1914, 1921, 1928, 1935, 1942, 1971, 1972, 1973, 1974, 1975, 1976, 2017, 2024, 2031, 2038
 2045, 2052, 2059, 2066, 2073, 2080, 2081, 2082, 2083, 2084, 2085, 2086, 2087, 2088, 2089, 2090
 2091, 2092, 2093, 2094, 2095, 2096, 2097, 2098, 2099, 2100, 2101, 2102, 2103, 2104, 2429, 2430
 2431, 2432, 2433, 2434, 2435, 2436, 2437, 2438, 2439, 2440, 2441, 2442, 2443, 2444, 2445, 2446
 2447, 2448, 2449, 2450, 2451, 2452, 2453, 2454, 2455, 2456, 2457, 2458, 2459, 2460, 2461, 2462
 2463, 2464, 2465, 2466, 2467, 2468, 2469, 2470, 2471, 2472, 2473, 2474, 2475, 2476, 2477, 2478
 2479, 2480, 2481, 2482, 2483, 2484, 2485, 2486, 2487, 2488, 2495, 2502, 2509, 2516, 2523, 2530
 2537, 2544, 2551, 2558, 2565, 2572, 2579, 2586, 2593, 2600, 2607, 2614, 2621, 2628, 2635, 2642
 2649, 2656, 2663, 2670, 2677, 2684, 2691, 2698, 2705, 2712, 2719, 2726, 2733, 2740, 2747, 2754
 2761, 2768, 2775, 2782, 2789, 2796, 2803, 2810, 2817, 2824, 2831, 2838, 2845, 2852, 2859, 2866
 2873, 2880, 2887, 2894, 2901, 2908, 3053, 3054, 3055, 3056, 3057, 3058, 3059, 3060, 3061, 3062
 3063, 3064, 3065, 3066, 3067, 3068, 3069, 3070, 3071, 3072, 3073, 3074, 3075, 3076, 3113, 3114
** ... 5 like lines cut
*Elset, elset=_Surf-1_S2, internal, instance=Part-4-top-1
    1,    2,    3,    4,    5,    6,    7,    8,    9,   10,   11,   12,   13,   14,   15,   16
   17,   18,   19,   20,   21,   22,   23,   24,   25,   26,   27,   28,   29,   30,   31,   32
   33,   34,  551,  552,  553,  554,  555,  556, 1397, 1398, 1399, 1400, 1401, 1402, 1403, 1404
 1405, 1406, 1407, 1408, 1409, 1410, 1411, 1412, 1413, 1414, 1415, 1416, 1417, 1418, 1419, 1420
 1421, 1422, 1423, 1424, 1425, 1426, 1427, 1428, 1429, 1430, 1837, 1838, 1839, 1840, 1841, 1842
 1843, 1844, 1845, 1846, 1847, 1848, 1849, 1850, 1851, 1852, 1853, 1854, 1855, 1856, 1857, 1858
 1859, 1860, 1861, 1862, 1863, 1864, 1865, 1866, 1867, 1868, 1869, 1870, 1871, 1872, 2005, 2006
 2007, 2008, 2009, 2010, 2011, 2012, 2013, 2014, 2015, 2016, 2017, 2018, 2019, 2020, 2021, 2022
 2023, 2024, 2025, 2026, 2027, 2028, 2029, 2030, 2031, 2032, 2033, 2034, 2035, 2036, 2037, 2038
 2039, 2040, 2041, 2042, 2043, 2044, 2045, 3281, 3282, 3283, 3284, 3285, 3286, 3287, 3288, 3289
 3290, 3291, 3292, 3293, 3294, 3295, 3296, 3297, 3298, 3299, 3300, 3301, 3302, 3303, 3304, 3305
 3306, 3307, 3308, 3309, 3310, 3311, 3312, 3313, 3314, 3315, 3316, 3725, 3726, 3727, 3728, 3729
 3730, 3731, 3732, 3733, 3734, 3735, 3736, 3737, 3738, 3739, 3740, 3741, 3742, 3743, 3744, 3745
 3746, 3747, 3748, 3749, 3750, 3751, 3752, 3753, 3754, 3755, 3756, 3757, 3758, 3759
*Elset, elset=_Surf-1_S2, internal, instance=Part-4-bottom-1
  551,  552,  553,  554,  555,  556, 1837, 1838, 1839, 1840, 1841, 1842, 1843, 1844, 1845, 1846
 1847, 1848, 1849, 1850, 1851, 1852, 1853, 1854, 1855, 1856, 1857, 1858, 1859, 1860, 1861, 1862
 1863, 1864, 1865, 1866, 1867, 1868, 1869, 1870, 1871, 1872, 2005, 2006, 2007, 2008, 2009, 2010
 3281, 3282, 3283, 3284, 3285, 3286, 3287, 3288, 3289, 3290, 3291, 3292, 3293, 3294, 3295, 3296
 3297, 3298, 3299, 3300, 3301, 3302, 3303, 3304, 3305, 3306, 3307, 3308, 3309, 3310, 3311, 3312
 3313, 3314, 3315, 3316
*Elset, elset=_Surf-1_S3, internal, instance=Part-4-top-1
   29,   30,   31,   32,   33,   34,  517,  518,  519,  520,  521,  522,  523,  524,  525,  526
  551,  552,  553,  554,  555,  556, 1397, 1398, 1399, 1400, 1455, 1456, 1457, 1458, 1459, 1460
 1461, 1462, 1463, 1464, 1465, 1466, 1467, 1468, 1469, 1470, 1471, 1472, 1473, 1474, 1475, 1476
 1477, 1478, 1479, 1480, 1481, 1482, 1483, 1484, 1485, 1486, 1487, 1488, 1669, 1670, 1671, 1672
 1673, 1674, 1675, 1676, 1677, 1678, 1679, 1680, 1681, 1682, 1683, 1684, 1685, 1686, 1687, 1688
 1689, 1690, 1691, 1692, 1943, 1944, 1945, 1946, 1977, 1978, 1979, 1980, 1981, 1982, 1983, 1984
 1985, 1986, 1987, 1988, 1989, 1990, 1991, 1992, 1993, 1994, 1995, 1996, 1997, 1998, 1999, 2000
 2001, 2002, 2003, 2004, 2249, 2250, 2251, 2252, 2253, 2254, 2255, 2256, 2257, 2258, 2259, 2260
 2261, 2262, 2263, 2264, 2265, 2266, 2267, 2268, 2269, 2270, 2271, 2272, 2273, 2274, 2275, 2276
 2277, 2278, 2279, 2280, 2281, 2282, 2283, 2284, 3077, 3078, 3079, 3080, 3081, 3082, 3083, 3084
 3085, 3086, 3087, 3088, 3089, 3090, 3091, 3092, 3093, 3094, 3095, 3096, 3097, 3098, 3099, 3100
 3101, 3102, 3103, 3104, 3105, 3106, 3107, 3108, 3109, 3110, 3111, 3112, 3485, 3486, 3487, 3488
 3489, 3490, 3491, 3492, 3493, 3494, 3495, 3496, 3497, 3498, 3499, 3500, 3501, 3502, 3503, 3504
 3505, 3506, 3507, 3508, 3509, 3510, 3511, 3512, 3513, 3514, 3515, 3516, 3517, 3518, 3519, 3520
 3689, 3690, 3691, 3692, 3693, 3694, 3695, 3696, 3697, 3698, 3699, 3700, 3701, 3702, 3703, 3704
 3705, 3706, 3707, 3708, 3709, 3710, 3711, 3712, 3713, 3714, 3715, 3716, 3717, 3718, 3719, 3720
 3721, 3722, 3723, 3724
*Elset, elset=_Surf-1_S3, internal, instance=Part-4-bottom-1
   29,   30,   31,   32,   33,   34,  517,  518,  519,  520,  521,  522, 1397, 1398, 1399, 1400
 1455, 1456, 1457, 1458, 1459, 1460, 1461, 1462, 1463, 1464, 1465, 1466, 1467, 1468, 1469, 1470
 1471, 1472, 1473, 1474, 1475, 1476, 1477, 1478, 1479, 1480, 1481, 1482, 1483, 1484, 1485, 1486
 1487, 1488, 1669, 1670, 1671, 1672, 1673, 1674, 1675, 1676, 1677, 1678, 1679, 1680, 1681, 1682
 1683, 1684, 1685, 1686, 1687, 1688, 1689, 1690, 1691, 1692, 1943, 1944, 1945, 1946, 1977, 1978
 1979, 1980, 2249, 2250, 2251, 2252, 2253, 2254, 2255, 2256, 2257, 2258, 2259, 2260, 2261, 2262
 2263, 2264, 2265, 2266, 2267, 2268, 2269, 2270, 2271, 2272, 2273, 2274, 2275, 2276, 2277, 2278
 2279, 2280, 2281, 2282, 2283, 2284, 3077, 3078, 3079, 3080, 3081, 3082, 3083, 3084, 3085, 3086
 3087, 3088, 3089, 3090, 3091, 3092, 3093, 3094, 3095, 3096, 3097, 3098, 3099, 3100, 3101, 3102
 3103, 3104, 3105, 3106, 3107, 3108, 3109, 3110, 3111, 3112, 3485, 3486, 3487, 3488, 3489, 3490
 3491, 3492, 3493, 3494, 3495, 3496, 3497, 3498, 3499, 3500, 3501, 3502, 3503, 3504, 3505, 3506
 3507, 3508, 3509, 3510, 3511, 3512, 3513, 3514, 3515, 3516, 3517, 3518, 3519, 3520, 3689, 3690
 3691, 3692, 3693, 3694, 3695, 3696, 3697, 3698, 3699, 3700, 3701, 3702, 3703, 3704, 3705, 3706
 3707, 3708, 3709, 3710, 3711, 3712, 3713, 3714, 3715, 3716, 3717, 3718, 3719, 3720, 3721, 3722
 3723, 3724
*Elset, elset=_Surf-1_S1, internal, instance=Part-4-top-1
 1908, 1909, 1910, 1911, 1912, 1913, 1914, 1915, 1916, 1917, 1918, 1919, 1920, 1921, 1922, 1923
 1924, 1925, 1926, 1927, 1928, 1929, 1930, 1931, 1932, 1933, 1934, 1935, 1936, 1937, 1938, 1939
 1940, 1941, 1942, 3830, 3831, 3832, 3833, 3834, 3835, 3836, 3837, 3838, 3839, 3840, 3841, 3842
 3843, 3844, 3845, 3846, 3847, 3848, 3849, 3850, 3851, 3852, 3853, 3854, 3855, 3856, 3857, 3858
 3859, 3860, 3861, 3862, 3863, 3864
*Elset, elset=_Surf-1_S6, internal, instance=Part-4-top-1
  557,  564,  571,  578,  585,  592,  599,  606,  613,  620,  627,  634,  641,  648,  655,  662
  669,  676,  683,  690,  697,  704,  711,  718,  725,  732,  739,  746,  753,  760,  767,  774
  781,  788,  795,  802,  809,  816,  823,  830,  837,  844,  851,  858,  865,  872,  879,  886
  893,  900,  907,  914,  921,  928,  935,  942,  949,  956,  963,  970,  977,  984,  991,  998
 1005, 1012, 1019, 1026, 1033, 1040, 1047, 1054, 1061, 1068, 1075, 1082, 1089, 1096, 1103, 1110
 1117, 1124, 1131, 1138, 1145, 1152, 1159, 1166, 1173, 1180, 1187, 1194, 1201, 1208, 1215, 1222
 1229, 1236, 1243, 1250, 1257, 1264, 1271, 1278, 1285, 1292, 1299, 1306, 1313, 1320, 1327, 1334
 1341, 1348, 1355, 1362, 1369, 1376, 1383, 1390, 3725, 3732, 3739, 3746, 3753, 3760, 3767, 3774
 3781, 3788, 3795, 3802, 3809, 3816, 3823, 3830, 3837, 3844, 3851, 3858
*Elset, elset=_Surf-1_S6, internal, instance=Part-4-bottom-1
  557,  564,  571,  578,  585,  592,  599,  606,  613,  620,  627,  634,  641,  648,  655,  662
  669,  676,  683,  690,  697,  704,  711,  718,  725,  732,  739,  746,  753,  760,  767,  774
  781,  788,  795,  802,  809,  816,  823,  830,  837,  844,  851,  858,  865,  872,  879,  886
  893,  900,  907,  914,  921,  928,  935,  942,  949,  956,  963,  970,  977,  984,  991,  998
 1005, 1012, 1019, 1026, 1033, 1040, 1047, 1054, 1061, 1068, 1075, 1082, 1089, 1096, 1103, 1110
 1117, 1124, 1131, 1138, 1145, 1152, 1159, 1166, 1173, 1180, 1187, 1194, 1201, 1208, 1215, 1222
 1229, 1236, 1243, 1250, 1257, 1264, 1271, 1278, 1285, 1292, 1299, 1306, 1313, 1320, 1327, 1334
 1341, 1348, 1355, 1362, 1369, 1376, 1383, 1390, 3725, 3732, 3739, 3746, 3753, 3760, 3767, 3774
 3781, 3788, 3795, 3802, 3809, 3816, 3823, 3830, 3837, 3844, 3851, 3858
*Surface, type=ELEMENT, name=Surf-1
_Surf-1_S4, S4
_Surf-1_S2, S2
_Surf-1_S6, S6
_Surf-1_S3, S3
_Surf-1_S1, S1
*Elset, elset=_m_Surf-1_S2, internal, instance=Part-4-bottom-1
  454,  455,  456,  457,  458,  459,  460,  461,  462,  463,  464,  465,  466,  467,  468,  469
  470,  471,  472,  473,  474,  475,  476,  477,  478,  479,  480,  481,  482,  483,  484,  485
  486,  487,  488,  557,  558,  559,  560,  561,  562,  563,  564,  565,  566,  567,  568,  569
  570,  571,  572,  573,  574,  575,  576,  577,  578,  579,  580,  581,  582,  583,  584,  585
  586,  587,  588,  589,  590,  591,  977,  978,  979,  980,  981,  982,  983,  984,  985,  986
  987,  988,  989,  990,  991,  992,  993,  994,  995,  996,  997,  998,  999, 1000, 1001, 1002
 1003, 1004, 1005, 1006, 1007, 1008, 1009, 1010, 1011, 1465, 1466, 1467, 1468, 1489, 1490, 1491
 1492, 1493, 1494, 1495, 1496, 1497, 1498, 1499, 1500, 1501, 1502, 1503, 1504, 1505, 1506, 1507
 1508, 1509, 1510, 1511, 1512, 1633, 1634, 1635, 1636, 1637, 1638, 2453, 2454, 2455, 2456, 2457
 2458, 2489, 2490, 2491, 2492, 2493, 2494, 2495, 2496, 2497, 2498, 2499, 2500, 2501, 2502, 2503
 2504, 2505, 2506, 2507, 2508, 2509, 2510, 2511, 2512, 2513, 2514, 2515, 2516, 2517, 2518, 2519
 2520, 2521, 2522, 2523, 2909, 2910, 2911, 2912, 2913, 2914, 2915, 2916, 2917, 2918, 2919, 2920
 2921, 2922, 2923, 2924, 2925, 2926, 2927, 2928, 2929, 2930, 2931, 2932, 3053, 3054, 3055, 3056
 3077, 3078, 3079, 3080, 3081, 3082, 3317, 3318, 3319, 3320, 3321, 3322, 3323, 3324, 3325, 3326
 3327, 3328, 3329, 3330, 3331, 3332, 3333, 3334, 3335, 3336, 3337, 3338, 3339, 3340, 3461, 3462
 3463, 3464, 3485, 3486, 3487, 3488, 3489, 3490
*Elset, elset=_m_Surf-1_S4, internal, instance=Part-4-bottom-1, generate
 2290,  2428,     6
*Elset, elset=_m_Surf-1_S3, internal, instance=Part-4-bottom-1, generate
 2429,  2447,     6
*Surface, type=ELEMENT, name=m_Surf-1
_m_Surf-1_S2, S2
_m_Surf-1_S4, S4
_m_Surf-1_S3, S3
** Constraint: coh2bottom
*Tie, name=coh2bottom, adjust=yes
Part-4-bottom-1.OffsetElements-1-BottomSurf, m_Surf-1
** Constraint: coh2top
*Tie, name=coh2top, adjust=yes
Part-4-bottom-1.OffsetElements-1-TopSurf, s_Surf-1
*End Assembly
** 
** MATERIALS
** 
*Material, name=Steel
*Elastic
 2e+11, 0.3
*Material, name=cohe
*Damage Initiation, criterion=MAXS
 4.57e+07, 8.61e+07, 8.61e+07
*Damage Evolution, type=ENERGY
29700.,
*Elastic, type=TRACTION
 2.3e+12, 9.7e+11, 9.7e+11
*Material, name=rock
*Depvar
     38,
*User Material, constants=12
 4.6e+10,     0.186,  7.35e-13,  1.21e-10, -3.15e-11,  2.39e-12,    10000.,  1.18e+06
     0.399,        0.,        0.,        0.
** 
** INTERACTION PROPERTIES
** 
*Surface Interaction, name=IntProp-1
1.,
*Friction
0.,
*Surface Behavior, pressure-overclosure=HARD
** 
** INTERACTIONS
** 
** Interaction: Int-1
*Contact Pair, interaction=IntProp-1, small sliding, type=SURFACE TO SURFACE, adjust=0.0
s_Surf-1, m_Surf-1
** ----------------------------------------------------------------
** 
** STEP: Step-1
** 
*Step, name=Step-1, nlgeom=YES, inc=1000000
*Static
0.01, 1., 1e-08, 0.02
** 
** BOUNDARY CONDITIONS
** 
** Name: BC-1 Type: Displacement/Rotation
*Boundary
Set-1, 3, 3
Set-1, 6, 6
** Name: BC-2 Type: Displacement/Rotation
*Boundary
Set-2, 1, 1
Set-2, 2, 2
Set-2, 4, 4
Set-2, 5, 5
Set-2, 6, 6
** 
** LOADS
** 
** Name: Load-1   Type: Pressure
*Dsload
Surf-1, P, 13.8e+06
** 
** CONTROLS
** 
*Controls, reset
*Controls, analysis=discontinuous
*Controls, parameters=time incrementation
, , , , , , , 10, , , 
** 
** OUTPUT REQUESTS
** 
*Restart, write, frequency=0
** 
** FIELD OUTPUT: F-Output-1
** 
*Output, field
*Node Output
U, 
*Element Output, directions=YES
DMICRT, E, LE, S, SDEG, SDV, STATUS
** 
** HISTORY OUTPUT: H-Output-1
** 
*Output, history, variable=PRESELECT
*End Step
** ----------------------------------------------------------------
** 
** STEP: Step-2
** 
*Step, name=Step-2, nlgeom=YES, inc=1000000
*Static
0.005, 1., 1e-10, 0.005
** 
** BOUNDARY CONDITIONS
** 
** Name: BC-3 Type: Displacement/Rotation
*Boundary
Set-3, 3, 3, -0.0008
** 
** OUTPUT REQUESTS
** 
*Restart, write, frequency=0
** 
** FIELD OUTPUT: F-Output-1
** 
*Output, field
*Node Output
U, 
*Element Output, directions=YES
DMICRT, E, LE, S, SDEG, SDV, STATUS
** 
** HISTORY OUTPUT: H-Output-1
** 
*Output, history, variable=PRESELECT
*End Step
