*Heading
** Job name: Mode_II_low_confining Model name: Application-2D-new
** Generated by: Abaqus/CAE 6.12-1
*Preprint, echo=NO, model=NO, history=NO, contact=NO
**
** PARTS
**
*Part, name=Part-4
*End Part
**  
*Part, name=Part-5
*End Part
**  
**
** ASSEMBLY
**
*Assembly, name=Assembly
**  
*Instance, name=Part-4-1, part=Part-4
*Node
      1,           6.,           0.
      2,           6., 0.0500000007
      3,           6.,  0.104337104
      4,           6.,  0.163387522
      5,           6.,  0.227560103
      6,           6.,  0.297299147
      7,           6.,  0.373087496
      8,           6.,  0.455449879
      9,           6.,  0.544956565
     10,           6.,  0.642227232
     11,           6.,  0.747935355
     12,           6.,  0.862812817
     13,           6.,  0.987654984
     14,           6.,    1.1233263
     15,           6.,    1.2707659
     16,           6.,   1.43099487
     17,           6.,   1.60512233
     18,           6.,   1.79435396
     19,           6.,           2.
     20,    5.9000001,           0.
** ... 1139 like lines cut
*Element, type=CPE4
   1,    1,    2,   21,   20
   2,    2,    3,   22,   21
   3,    3,    4,   23,   22
   4,    4,    5,   24,   23
   5,    5,    6,   25,   24
   6,    6,    7,   26,   25
   7,    7,    8,   27,   26
   8,    8,    9,   28,   27
   9,    9,   10,   29,   28
  10,   10,   11,   30,   29
  11,   11,   12,   31,   30
  12,   12,   13,   32,   31
  13,   13,   14,   33,   32
  14,   14,   15,   34,   33
  15,   15,   16,   35,   34
  16,   16,   17,   36,   35
  17,   17,   18,   37,   36
  18,   18,   19,   38,   37
  19,   20,   21,   40,   39
  20,   21,   22,   41,   40
** ... 1060 like lines cut
*Nset, nset=Set-1, generate
    1,  1159,     1
*Elset, elset=Set-1, generate
    1,  1080,     1
** Section: rock
*Solid Section, elset=Set-1, material=rock
1.,
*End Instance
**  
*Instance, name=Part-4-2, part=Part-4
          6., -0.000100000000000674,           0.
          6., -0.000100000000000674,           0.,           6., -0.000100000000000674,           1.,         180.
*Node
      1,           6.,           0.
      2,           6., 0.0500000007
      3,           6.,  0.104337104
      4,           6.,  0.163387522
      5,           6.,  0.227560103
      6,           6.,  0.297299147
      7,           6.,  0.373087496
      8,           6.,  0.455449879
      9,           6.,  0.544956565
     10,           6.,  0.642227232
     11,           6.,  0.747935355
     12,           6.,  0.862812817
     13,           6.,  0.987654984
     14,           6.,    1.1233263
     15,           6.,    1.2707659
     16,           6.,   1.43099487
     17,           6.,   1.60512233
     18,           6.,   1.79435396
     19,           6.,           2.
     20,    5.9000001,           0.
** ... 1139 like lines cut
*Element, type=CPE4
   1,    1,    2,   21,   20
   2,    2,    3,   22,   21
   3,    3,    4,   23,   22
   4,    4,    5,   24,   23
   5,    5,    6,   25,   24
   6,    6,    7,   26,   25
   7,    7,    8,   27,   26
   8,    8,    9,   28,   27
   9,    9,   10,   29,   28
  10,   10,   11,   30,   29
  11,   11,   12,   31,   30
  12,   12,   13,   32,   31
  13,   13,   14,   33,   32
  14,   14,   15,   34,   33
  15,   15,   16,   35,   34
  16,   16,   17,   36,   35
  17,   17,   18,   37,   36
  18,   18,   19,   38,   37
  19,   20,   21,   40,   39
  20,   21,   22,   41,   40
** ... 1060 like lines cut
*Nset, nset=Set-1, generate
    1,  1159,     1
*Elset, elset=Set-1, generate
    1,  1080,     1
** Section: rock
*Solid Section, elset=Set-1, material=rock
1.,
*End Instance
**  
*Instance, name=Part-5-1, part=Part-5
          8.,      -0.0001,           0.
*Node
      1,         -7.5,           0.
      2,  -7.44999981,           0.
      3,   -7.4000001,           0.
      4,   -7.3499999,           0.
      5,  -7.30000019,           0.
      6,        -7.25,           0.
      7,  -7.19999981,           0.
      8,   -7.1500001,           0.
      9,   -7.0999999,           0.
     10,  -7.05000019,           0.
     11,          -7.,           0.
     12,  -6.94999981,           0.
     13,   -6.9000001,           0.
     14,   -6.8499999,           0.
     15,  -6.80000019,           0.
     16,        -6.75,           0.
     17,  -6.69999981,           0.
     18,   -6.6500001,           0.
     19,   -6.5999999,           0.
     20,  -6.55000019,           0.
** ... 202 like lines cut
*Element, type=COH2D4
  1,   1,   2, 113, 112
  2,   2,   3, 114, 113
  3,   3,   4, 115, 114
  4,   4,   5, 116, 115
  5,   5,   6, 117, 116
  6,   6,   7, 118, 117
  7,   7,   8, 119, 118
  8,   8,   9, 120, 119
  9,   9,  10, 121, 120
 10,  10,  11, 122, 121
 11,  11,  12, 123, 122
 12,  12,  13, 124, 123
 13,  13,  14, 125, 124
 14,  14,  15, 126, 125
 15,  15,  16, 127, 126
 16,  16,  17, 128, 127
 17,  17,  18, 129, 128
 18,  18,  19, 130, 129
 19,  19,  20, 131, 130
 20,  20,  21, 132, 131
** ... 90 like lines cut
*Nset, nset=Set-1, generate
   1,  222,    1
*Elset, elset=Set-1, generate
   1,  110,    1
** Section: cohe
*Cohesive Section, elset=Set-1, material=cohe, response=TRACTION SEPARATION
, 1.
*End Instance
**  
*Nset, nset=Set-3, instance=Part-4-2, generate
   19,  1159,    19
*Elset, elset=Set-3, instance=Part-4-2, generate
   18,  1080,    18
*Nset, nset=Set-1, instance=Part-4-2, generate
  1,  19,   1
*Elset, elset=Set-1, instance=Part-4-2, generate
  1,  18,   1
*Nset, nset=Set-2, instance=Part-5-1
 111,
*Elset, elset=_Surf-2_S3, internal, instance=Part-4-1, generate
 1063,  1080,     1
*Surface, type=ELEMENT, name=Surf-2
_Surf-2_S3, S3
*Elset, elset=_m_Surf-1_S4, internal, instance=Part-4-1, generate
   1,  973,   18
*Surface, type=ELEMENT, name=m_Surf-1
_m_Surf-1_S4, S4
*Elset, elset=_m_Surf-2_S4, internal, instance=Part-4-2, generate
   91,  1063,    18
*Surface, type=ELEMENT, name=m_Surf-2
_m_Surf-2_S4, S4
*Elset, elset=_s_Surf-1_S3, internal, instance=Part-5-1, generate
   1,  110,    1
*Surface, type=ELEMENT, name=s_Surf-1
_s_Surf-1_S3, S3
*Elset, elset=_s_Surf-2_S1, internal, instance=Part-5-1, generate
   1,  110,    1
*Surface, type=ELEMENT, name=s_Surf-2
_s_Surf-2_S1, S1
*Elset, elset=_m_Surf-10_S4, internal, instance=Part-4-1, generate
  991,  1063,    18
*Elset, elset=_m_Surf-10_S4, internal, instance=Part-4-2, generate
    1,  1063,    18
*Surface, type=ELEMENT, name=m_Surf-10
_m_Surf-10_S4, S4
*Elset, elset=_s_Surf-10_S4, internal, instance=Part-4-1, generate
    1,  1063,    18
*Surface, type=ELEMENT, name=s_Surf-10
_s_Surf-10_S4, S4
*Elset, elset=_Surf-1_S1, internal, instance=Part-4-1, generate
  1,  18,   1
*Elset, elset=_Surf-1_S2, internal, instance=Part-4-1, generate
   18,  1080,    18
*Elset, elset=_Surf-1_S3, internal, instance=Part-4-1, generate
 1063,  1080,     1
*Elset, elset=_Surf-1_S3, internal, instance=Part-4-2, generate
 1063,  1080,     1
*Elset, elset=_Surf-1_S4, internal, instance=Part-4-1, generate
  991,  1063,    18
*Elset, elset=_Surf-1_S4, internal, instance=Part-4-2, generate
  1,  73,  18
*Surface, type=ELEMENT, name=Surf-1
_Surf-1_S1, S1
_Surf-1_S2, S2
_Surf-1_S4, S4
_Surf-1_S3, S3
** Constraint: coh2bottom_l
*Tie, name=coh2bottom_l, adjust=yes
s_Surf-2, m_Surf-2
** Constraint: coh2up_l
*Tie, name=coh2up_l, adjust=yes
s_Surf-1, m_Surf-1
*End Assembly
** 
** MATERIALS
** 
*Material, name=cohe
*Damage Initiation, criterion=MAXS
 8.03e+07, 8.03e+07, 8.03e+07
*Damage Evolution, type=ENERGY
23900.,
*Elastic, type=TRACTION
 2.3e+12, 9.7e+11, 9.7e+11
*Material, name=rock
*Depvar
     28,
*User Material, constants=12
 4.6e+10,     0.186,  7.35e-13,  1.21e-10, -3.15e-11,  2.39e-12,    10000.,  1.18e+06
     0.399,        0.,        0.,        0.
** 
** INTERACTION PROPERTIES
** 
*Surface Interaction, name=IntProp-1
1.,
*Friction
0.,
*Surface Behavior, pressure-overclosure=HARD
** 
** BOUNDARY CONDITIONS
** 
** Name: BC-1 Type: Displacement/Rotation
*Boundary
Set-3, 2, 2
** Name: BC-3 Type: Displacement/Rotation
*Boundary
Set-1, 1, 1
** 
** INTERACTIONS
** 
** Interaction: Int-1
*Contact Pair, interaction=IntProp-1, small sliding, type=SURFACE TO SURFACE, adjust=0.0
s_Surf-10, m_Surf-10
** ----------------------------------------------------------------
** 
** STEP: Step-1
** 
*Step, name=Step-1, nlgeom=YES, inc=1000000000
*Static, stabilize=0.0002, allsdtol=0.05, continue=NO
0.01, 1., 1e-20, 0.05
** 
** LOADS
** 
** Name: Load-1   Type: Pressure
*Dsload
Surf-1, P, 0.5e+07
** 
** CONTROLS
** 
*Controls, reset
*Controls, analysis=discontinuous
*Controls, parameters=time incrementation
, , , , , , , 15, , , 
** 
** OUTPUT REQUESTS
** 
*Restart, write, frequency=0
** 
** FIELD OUTPUT: F-Output-1
** 
*Output, field, frequency=10
*Node Output
U, 
*Element Output, directions=YES
DMICRT, E, LE, S, SDEG, SDV
** 
** HISTORY OUTPUT: H-Output-1
** 
*Output, history, variable=PRESELECT
*End Step
** ----------------------------------------------------------------
** 
** STEP: Step-2
** 
*Step, name=Step-2, nlgeom=YES, inc=1000000
*Static, stabilize=0.0002, allsdtol=0.05, continue=NO
0.001, 1., 1e-40, 0.03
** 
** LOADS
** 
** Name: Load-4   Type: Pressure
*Dsload
Surf-2, P, 1e+08
** 
** OUTPUT REQUESTS
** 
*Restart, write, frequency=0
** 
** FIELD OUTPUT: F-Output-1
** 
*Output, field, frequency=10
*Node Output
U, 
*Element Output, directions=YES
DMICRT, E, LE, S, SDEG, SDV
** 
** HISTORY OUTPUT: H-Output-1
** 
*Output, history, variable=PRESELECT
*End Step
